Version 4.1
SHEET 1 1008 804
WIRE 320 240 320 192
WIRE 592 240 592 192
WIRE 464 304 464 256
WIRE 128 352 128 336
WIRE 320 352 320 320
WIRE 320 352 128 352
WIRE 384 352 320 352
WIRE 592 352 592 320
WIRE 592 352 480 352
WIRE 720 352 720 336
WIRE 720 352 592 352
WIRE 720 368 720 352
WIRE 720 480 720 448
WIRE 128 656 128 624
WIRE 272 656 272 624
WIRE 128 768 128 736
WIRE 272 768 272 736
FLAG 128 464 0
FLAG 720 336 SIGNAL_L
FLAG 128 336 SIGNAL_H
FLAG 128 768 0
FLAG 272 768 0
FLAG 128 624 VCC_H
FLAG 272 624 VCC_L
FLAG 464 256 VCC_L
FLAG 320 192 VCC_H
FLAG 592 192 VCC_L
FLAG 720 480 0
SYMBOL res 336 336 R180
WINDOW 0 48 64 Left 2
WINDOW 3 48 40 Left 2
SYMATTR InstName R1
SYMATTR Value 10k
SYMBOL voltage 128 368 R0
WINDOW 0 37 50 Left 2
WINDOW 3 -49 -40 VRight 0
WINDOW 123 0 0 Left 0
WINDOW 39 0 0 Left 0
SYMATTR InstName V1
SYMATTR Value PULSE(0 {VH} 0 {0.05/F} {0.05/F} {0.5/F} {1/F})
SYMBOL res 608 224 M0
SYMATTR InstName R3
SYMATTR Value 10k
SYMBOL voltage 128 640 R0
WINDOW 0 39 47 Left 2
WINDOW 3 41 75 Left 2
WINDOW 123 0 0 Left 0
WINDOW 39 0 0 Left 0
SYMATTR InstName V3
SYMATTR Value {VH}
SYMBOL voltage 272 640 R0
WINDOW 0 39 43 Left 2
WINDOW 3 43 70 Left 2
WINDOW 123 0 0 Left 0
WINDOW 39 0 0 Left 0
SYMATTR InstName V4
SYMATTR Value {VL}
SYMBOL MyLib\\Transistor_MOSFET_N\\BSS138 384 304 M90
WINDOW 0 98 49 VLeft 2
WINDOW 38 128 106 VLeft 2
SYMATTR InstName U1
SYMBOL voltage 720 352 R0
WINDOW 0 -73 46 Left 2
WINDOW 3 81 -49 VRight 0
WINDOW 123 0 0 Left 0
WINDOW 39 0 0 Left 0
SYMATTR InstName V2
SYMATTR Value PULSE(0 {VL} 0 {0.05/F} {0.05/F} {0.5/F} {1/F})
TEXT 416 632 Left 2 !.tran {5/F}
TEXT 416 664 Left 2 !.param F=4MegHz VH=5V VL=3.3V
