Version 4.1
SHEET 1 880 708
WIRE -544 32 -544 0
WIRE -432 32 -544 32
WIRE -320 32 -432 32
WIRE -80 32 -320 32
WIRE -16 32 -80 32
WIRE 128 32 80 32
WIRE 160 32 128 32
WIRE 272 32 240 32
WIRE 368 32 272 32
WIRE 464 32 368 32
WIRE 592 32 464 32
WIRE -544 64 -544 32
WIRE -432 64 -432 32
WIRE -320 64 -320 32
WIRE 368 64 368 32
WIRE 464 64 464 32
WIRE 592 64 592 32
WIRE 128 96 128 32
WIRE -80 144 -80 112
WIRE 32 144 32 96
WIRE 32 144 -80 144
WIRE 80 144 32 144
WIRE 272 144 272 32
WIRE 272 144 176 144
WIRE -432 160 -432 128
WIRE -320 160 -320 128
WIRE 368 160 368 128
WIRE 464 160 464 128
WIRE -544 176 -544 144
WIRE 592 192 592 144
FLAG -544 176 0
FLAG 368 160 0
FLAG 592 192 0
FLAG -432 160 0
FLAG -320 160 0
FLAG 464 160 0
FLAG -544 0 IN
SYMBOL res -64 128 R180
WINDOW 0 54 69 Left 2
WINDOW 3 50 40 Left 2
SYMATTR InstName R1
SYMATTR Value 22k
SYMBOL npn -16 96 R270
WINDOW 0 129 -9 VRight 2
WINDOW 3 102 106 VLeft 2
SYMATTR InstName Q1
SYMATTR Value BC337-40
SYMBOL cap 352 64 R0
WINDOW 0 43 34 Left 2
WINDOW 3 47 61 Left 2
SYMATTR InstName C2
SYMATTR Value 10µ
SYMBOL res 576 48 R0
SYMATTR InstName LOAD
SYMATTR Value 20
SYMBOL voltage -544 48 R0
WINDOW 0 44 40 Left 2
WINDOW 3 70 70 Right 2
WINDOW 123 0 0 Left 0
WINDOW 39 0 0 Left 0
SYMATTR InstName V1
SYMATTR Value 12
SYMBOL cap -448 64 R0
WINDOW 0 43 24 Left 2
WINDOW 3 51 52 Left 2
SYMATTR InstName C1
SYMATTR Value 10µ
SYMBOL cap -336 64 R0
WINDOW 0 43 24 Left 2
WINDOW 3 51 52 Left 2
SYMATTR InstName C3
SYMATTR Value 100n
SYMBOL cap 448 64 R0
WINDOW 0 43 24 Left 2
WINDOW 3 51 52 Left 2
SYMATTR InstName C4
SYMATTR Value 100n
SYMBOL MyLib\\Regulator\\TL431 128 144 M90
WINDOW 0 63 -42 VRight 2
WINDOW 3 88 -38 VRight 2
SYMATTR InstName U1
SYMBOL res 144 48 R270
WINDOW 0 32 56 VTop 2
WINDOW 3 0 56 VBottom 2
SYMATTR InstName R2
SYMATTR Value 82
TEXT -544 248 Left 2 !.tran 100m
TEXT 392 -8 Left 2 ;I(Load)=Vref/R2
TEXT -152 192 Left 2 ;LM431A=2.495V\nLM431B=2.495V\nLM431C=2.5V
