Version 4.1
SHEET 1 880 680
WIRE -48 -48 -48 -80
WIRE 64 -48 -48 -48
WIRE 192 -48 64 -48
WIRE -48 -16 -48 -48
WIRE 64 -16 64 -48
WIRE 192 -16 192 -48
WIRE 64 80 64 48
WIRE 192 96 192 64
WIRE 304 96 192 96
WIRE 368 96 304 96
WIRE -48 112 -48 64
WIRE 304 128 304 96
WIRE 192 144 192 96
WIRE 304 224 304 192
WIRE 192 288 192 240
FLAG 192 288 0
FLAG -48 112 0
FLAG 368 96 OUT
IOPIN 368 96 Out
FLAG 304 224 0
FLAG 64 80 0
FLAG -48 -80 IN
SYMBOL voltage -48 -32 R0
WINDOW 0 41 50 Left 2
WINDOW 3 -56 -6 VRight 2
WINDOW 123 0 0 Left 0
WINDOW 39 0 0 Left 0
SYMATTR InstName V1
SYMATTR Value SINE(5 0.2 50)
SYMBOL res 176 -32 R0
SYMATTR InstName R1
SYMATTR Value 1k
SYMBOL cap 288 128 R0
WINDOW 0 44 21 Left 2
WINDOW 3 47 47 Left 2
SYMATTR InstName C2
SYMATTR Value 100n
SYMBOL MyLib\\Regulator\\LM336Z_2V5 192 192 R0
WINDOW 0 -89 5 Left 2
WINDOW 38 -208 34 Left 2
SYMATTR InstName U1
SYMBOL cap 48 -16 R0
SYMATTR InstName C1
SYMATTR Value 100n
TEXT -8 280 Left 2 !.tran 40m
