Version 4.1
SHEET 1 880 708
WIRE -544 32 -544 0
WIRE -416 32 -544 32
WIRE -288 32 -416 32
WIRE -80 32 -288 32
WIRE -16 32 -80 32
WIRE 256 32 80 32
WIRE 384 32 256 32
WIRE 512 32 384 32
WIRE 656 32 512 32
WIRE 720 32 656 32
WIRE -544 64 -544 32
WIRE -416 64 -416 32
WIRE -288 64 -288 32
WIRE 384 64 384 32
WIRE 512 64 512 32
WIRE 656 64 656 32
WIRE -80 144 -80 112
WIRE 32 144 32 96
WIRE 32 144 -80 144
WIRE -416 160 -416 128
WIRE -288 160 -288 128
WIRE 384 160 384 128
WIRE 512 160 512 128
WIRE -544 176 -544 144
WIRE 32 192 32 144
WIRE 656 192 656 144
WIRE 256 208 256 32
WIRE 32 320 32 272
WIRE 144 368 80 368
WIRE 256 368 256 288
WIRE 256 368 144 368
WIRE 144 384 144 368
WIRE 256 416 256 368
WIRE 32 480 32 416
WIRE 144 480 144 448
WIRE 144 480 32 480
WIRE 32 544 32 480
WIRE 256 544 256 496
FLAG -544 176 0
FLAG 256 544 0
FLAG 720 32 Vout
FLAG 32 544 0
FLAG 384 160 0
FLAG 656 192 0
FLAG -416 160 0
FLAG -288 160 0
FLAG 512 160 0
FLAG -544 0 IN
SYMBOL res -64 128 R180
WINDOW 0 54 69 Left 2
WINDOW 3 50 40 Left 2
SYMATTR InstName R3
SYMATTR Value 470
SYMBOL res 240 192 R0
WINDOW 3 48 65 Left 2
WINDOW 0 47 40 Left 2
SYMATTR Value 10k
SYMATTR InstName R1
SYMBOL res 240 400 R0
WINDOW 0 46 40 Left 2
WINDOW 3 48 66 Left 2
SYMATTR InstName R2
SYMATTR Value 10k
SYMBOL npn -16 96 R270
SYMATTR InstName Q1
SYMBOL cap 368 64 R0
WINDOW 0 43 34 Left 2
WINDOW 3 47 61 Left 2
SYMATTR InstName C2
SYMATTR Value 1000µ
SYMBOL res 640 48 R0
SYMATTR InstName LOAD
SYMATTR Value 10
SYMBOL voltage -544 48 R0
WINDOW 0 44 40 Left 2
WINDOW 3 -54 -15 VRight 2
WINDOW 123 0 0 Left 0
WINDOW 39 0 0 Left 0
SYMATTR InstName V1
SYMATTR Value SINE(12 1 100)
SYMBOL cap -432 64 R0
WINDOW 0 43 24 Left 2
WINDOW 3 51 52 Left 2
SYMATTR InstName C1
SYMATTR Value 470µ
SYMBOL cap -304 64 R0
WINDOW 0 43 24 Left 2
WINDOW 3 51 52 Left 2
SYMATTR InstName C3
SYMATTR Value 100n
SYMBOL cap 496 64 R0
WINDOW 0 43 24 Left 2
WINDOW 3 51 52 Left 2
SYMATTR InstName C4
SYMATTR Value 100n
SYMBOL cap 160 448 R180
WINDOW 0 -37 38 Left 2
WINDOW 3 -64 18 Left 2
SYMATTR InstName C5
SYMATTR Value 100n
SYMBOL res 16 176 R0
SYMATTR InstName R4
SYMATTR Value 0.01
SYMBOL MyLib\\Regulator\\TL431 32 368 M0
SYMATTR InstName U1
TEXT -480 248 Left 2 !.tran 100m
