Version 4.1
SHEET 1 880 708
WIRE 192 -112 192 -176
WIRE 480 -112 480 -176
WIRE 368 -16 368 -80
WIRE 192 16 192 -32
WIRE 480 48 480 -32
WIRE 368 96 368 64
WIRE 416 96 368 96
WIRE 368 192 368 96
WIRE 480 240 480 144
WIRE 480 240 432 240
WIRE 480 288 480 240
WIRE 368 400 368 288
WIRE 480 400 480 368
WIRE 480 400 368 400
WIRE 480 448 480 400
FLAG 192 16 0
FLAG 480 448 0
FLAG 192 -176 VDD
FLAG 480 -176 VDD
FLAG 368 -80 VDD
SYMBOL voltage 192 -128 R0
WINDOW 0 -70 43 Left 2
WINDOW 3 -69 68 Left 2
WINDOW 123 0 0 Left 0
WINDOW 39 0 0 Left 0
SYMATTR InstName V1
SYMATTR Value 12
SYMBOL res 384 80 R180
WINDOW 0 48 64 Left 2
WINDOW 3 48 40 Left 2
SYMATTR InstName R1
SYMATTR Value 1k
SYMBOL npn 432 192 M0
WINDOW 0 93 9 VRight 2
WINDOW 3 116 8 VRight 2
SYMATTR InstName Q2
SYMATTR Value BC337-40
SYMBOL res 496 384 R180
WINDOW 0 48 64 Left 2
WINDOW 3 48 40 Left 2
SYMATTR InstName R2
SYMATTR Value 23
SYMBOL res 464 -128 R0
SYMATTR InstName LOAD
SYMATTR Value 6
SYMBOL npn 416 48 R0
WINDOW 0 117 -3 VRight 2
WINDOW 3 89 112 VLeft 2
SYMATTR InstName Q1
SYMATTR Value BC337-40
TEXT 144 72 Left 2 !.tran 10m
TEXT 520 304 Left 2 ;R2 = 0.7v / Current\nR2 = 0.7v / 30mA\nR2 = 23
