Version 4.1
SHEET 1 880 680
WIRE -400 128 -400 96
WIRE -272 128 -400 128
WIRE -144 128 -272 128
WIRE -32 128 -144 128
WIRE 272 128 224 128
WIRE 400 128 272 128
WIRE 560 128 560 96
WIRE 560 128 400 128
WIRE -400 160 -400 128
WIRE -272 160 -272 128
WIRE -144 160 -144 128
WIRE 272 160 272 128
WIRE 400 160 400 128
WIRE 560 160 560 128
WIRE -272 256 -272 224
WIRE -144 256 -144 224
WIRE 272 256 272 224
WIRE 400 256 400 224
WIRE -400 288 -400 240
WIRE 96 288 96 224
WIRE 560 288 560 240
FLAG -400 288 0
FLAG 560 96 OUT
FLAG -400 96 IN
FLAG 96 288 0
FLAG -272 256 0
FLAG -144 256 0
FLAG 272 256 0
FLAG 400 256 0
FLAG 560 288 0
SYMBOL voltage -400 144 R0
WINDOW 123 0 0 Left 0
WINDOW 39 0 0 Left 0
WINDOW 0 39 39 Left 2
WINDOW 3 -52 -11 VRight 2
SYMATTR InstName V1
SYMATTR Value SINE(9 1.5 50)
SYMBOL MyLib\\Regulator\\LM7805 96 128 R0
SYMATTR InstName U1
SYMBOL cap -288 160 R0
WINDOW 0 42 24 Left 2
WINDOW 3 45 46 Left 2
SYMATTR InstName C1
SYMATTR Value 470µ
SYMBOL cap -160 160 R0
WINDOW 0 46 25 Left 2
WINDOW 3 49 51 Left 2
SYMATTR InstName C2
SYMATTR Value 100n
SYMBOL cap 256 160 R0
WINDOW 0 42 24 Left 2
WINDOW 3 45 46 Left 2
SYMATTR InstName C3
SYMATTR Value 100n
SYMBOL cap 384 160 R0
WINDOW 0 46 25 Left 2
WINDOW 3 49 51 Left 2
SYMATTR InstName C4
SYMATTR Value 470µ
SYMBOL res 544 144 R0
WINDOW 0 44 46 Left 2
WINDOW 3 45 72 Left 2
SYMATTR InstName LOAD
SYMATTR Value 10
TEXT -408 376 Left 2 !.tran 40m
TEXT 592 240 Left 2 ;2.5W
TEXT -248 104 Left 2 ;Vin = Vout + 2.5V
