Version 4.1
SHEET 1 1636 700
WIRE 464 -1184 464 -1216
WIRE 976 -1168 976 -1184
WIRE 944 -1152 864 -1152
WIRE 1232 -1152 1232 -1168
WIRE 1104 -1136 1008 -1136
WIRE 1200 -1136 1104 -1136
WIRE 624 -1120 624 -1136
WIRE 736 -1120 624 -1120
WIRE 912 -1120 816 -1120
WIRE 944 -1120 912 -1120
WIRE 1360 -1120 1264 -1120
WIRE 1424 -1120 1360 -1120
WIRE 1200 -1104 1152 -1104
WIRE 624 -1088 624 -1120
WIRE 976 -1088 976 -1104
WIRE 464 -1072 464 -1104
WIRE 464 -1072 400 -1072
WIRE 864 -1072 864 -1152
WIRE 1232 -1072 1232 -1088
WIRE 400 -1056 400 -1072
WIRE 464 -1040 464 -1072
WIRE 912 -1008 912 -1120
WIRE 976 -1008 912 -1008
WIRE 1104 -1008 1104 -1136
WIRE 1104 -1008 1056 -1008
WIRE 1152 -1008 1152 -1104
WIRE 1360 -1008 1360 -1120
WIRE 1360 -1008 1152 -1008
WIRE 624 -960 624 -1008
WIRE 464 -928 464 -960
FLAG 464 -1216 VDD
FLAG 400 -1056 0
FLAG 1424 -1120 OUT
IOPIN 1424 -1120 Out
FLAG 976 -1088 VEE
FLAG 464 -928 VEE
FLAG 976 -1184 VDD
FLAG 864 -1072 0
FLAG 624 -960 0
FLAG 1232 -1072 VEE
FLAG 1232 -1168 VDD
FLAG 624 -1136 IN
SYMBOL voltage 464 -1200 R0
WINDOW 123 0 0 Left 2
WINDOW 39 0 0 Left 2
WINDOW 0 38 43 Left 2
WINDOW 3 36 73 Left 2
SYMATTR InstName V1
SYMATTR Value 15
SYMBOL voltage 624 -1104 M0
WINDOW 123 24 146 Left 2
WINDOW 39 24 125 Left 2
WINDOW 0 -79 34 Left 2
WINDOW 3 -256 58 Invisible 2
SYMATTR InstName Vin
SYMATTR Value SINE(0V 1V 10KH)
SYMBOL res 1072 -992 M270
WINDOW 0 -29 62 VTop 2
WINDOW 3 -26 56 VBottom 2
SYMATTR InstName R2
SYMATTR Value 20k
SYMBOL voltage 464 -1056 R0
WINDOW 123 24 146 Left 2
WINDOW 39 24 125 Left 2
WINDOW 0 39 43 Left 2
WINDOW 3 37 71 Left 2
SYMATTR InstName V2
SYMATTR Value 15
SYMBOL MyLib\\OpAmp\\LM358 976 -1200 R0
SYMATTR InstName U1
SYMBOL res 832 -1136 R90
WINDOW 0 -30 63 VBottom 2
WINDOW 3 -31 67 VTop 2
SYMATTR InstName R4
SYMATTR Value 10k
SYMBOL MyLib\\OpAmp\\LM358 1232 -1184 R0
SYMATTR InstName U2
TEXT 464 -832 Left 2 !.tran 0.100m
