Version 4.1
SHEET 1 1132 824
WIRE -1136 -128 -1136 -160
WIRE -1328 -112 -1328 -160
WIRE -336 -96 -496 -96
WIRE -96 -96 -336 -96
WIRE -64 -96 -96 -96
WIRE 80 -96 80 -128
WIRE 80 -96 16 -96
WIRE -1040 -80 -1040 -112
WIRE -496 -64 -496 -96
WIRE -336 -48 -336 -96
WIRE -1136 -16 -1136 -48
WIRE 80 0 80 -96
WIRE -1328 16 -1328 -32
WIRE -96 16 -96 -96
WIRE -112 32 -176 32
WIRE -1040 48 -1040 0
WIRE -960 48 -1040 48
WIRE -784 48 -800 48
WIRE -656 48 -704 48
WIRE -624 48 -656 48
WIRE -496 48 -496 16
WIRE -496 48 -544 48
WIRE -496 64 -496 48
WIRE -112 64 -128 64
WIRE -336 112 -336 32
WIRE -128 112 -128 64
WIRE -128 112 -176 112
WIRE -1136 128 -1136 48
WIRE -1040 128 -1136 128
WIRE -960 128 -1040 128
WIRE -544 128 -800 128
WIRE -656 144 -656 48
WIRE -1040 176 -1040 128
WIRE -1376 224 -1376 192
WIRE -1248 224 -1376 224
WIRE -1104 224 -1168 224
WIRE -656 224 -656 208
WIRE -496 224 -496 128
WIRE -496 224 -656 224
WIRE -336 224 -336 176
WIRE -336 224 -496 224
WIRE -96 224 -96 80
WIRE -96 224 -336 224
WIRE 80 224 80 80
WIRE 80 224 -96 224
WIRE 80 240 80 224
WIRE -1376 272 -1376 224
WIRE -1040 320 -1040 272
WIRE -1376 384 -1376 352
FLAG 80 240 0
FLAG -1376 384 0
FLAG -1040 320 0
FLAG 80 -128 LI
FLAG -1376 192 TRIG
FLAG -1328 16 0
FLAG -1040 -112 VCC
FLAG -1328 -160 VCC
FLAG -1136 -160 VCC
SYMBOL Misc\\TRIAC -528 64 R0
WINDOW 0 73 39 Left 2
SYMATTR InstName U1
SYMATTR Value Q8004L4
SYMBOL res -512 -80 R0
SYMATTR InstName LOAD
SYMATTR Value 100
SYMBOL res -800 64 R270
WINDOW 0 32 56 VTop 2
WINDOW 3 0 56 VBottom 2
SYMATTR InstName R2
SYMATTR Value 360
SYMBOL voltage 80 96 R180
WINDOW 123 0 0 Left 0
WINDOW 39 0 0 Left 0
WINDOW 0 44 57 Left 2
WINDOW 3 -57 -19 VRight 2
SYMATTR InstName V1
SYMATTR Value SINE(0 325 50)
SYMBOL res -1056 -96 R0
SYMATTR InstName R3
SYMATTR Value 220
SYMBOL voltage -1376 256 R0
WINDOW 3 -62 -256 VRight 2
WINDOW 123 0 0 Left 0
WINDOW 39 0 0 Left 0
SYMATTR Value PULSE(0 3.3 0.004 1u 1u 100u 10m)
SYMATTR InstName V2
SYMBOL res -640 64 R270
WINDOW 0 32 56 VTop 2
WINDOW 3 0 56 VBottom 2
SYMATTR InstName R4
SYMATTR Value 470
SYMBOL cap -672 144 R0
WINDOW 0 -39 24 Left 2
WINDOW 3 -49 47 Left 2
SYMATTR InstName C1
SYMATTR Value 47n
SYMBOL Extra\\Opto_MOC30xx -912 64 R0
WINDOW 38 32 112 Center 2
WINDOW 0 32 -64 Center 2
SYMATTR SpiceModel MOC3021
SYMATTR InstName U2
SYMBOL cap -352 112 R0
WINDOW 0 47 28 Left 2
WINDOW 3 47 58 Left 2
SYMATTR InstName C2
SYMATTR Value 10n
SYMBOL res -352 -64 R0
WINDOW 0 48 47 Left 2
WINDOW 3 50 72 Left 2
SYMATTR InstName R1
SYMATTR Value 39
SYMBOL SpecialFunctions\\varistor -80 112 M180
WINDOW 0 5 84 Left 2
SYMATTR InstName A1
SYMBOL voltage -176 16 R0
WINDOW 0 -69 43 Left 2
WINDOW 3 -85 70 Left 2
WINDOW 123 0 0 Left 0
WINDOW 39 0 0 Left 0
SYMATTR InstName V3
SYMATTR Value 470
SYMBOL res 32 -112 R90
WINDOW 0 0 56 VBottom 2
WINDOW 3 32 56 VTop 2
SYMATTR InstName FUSE
SYMATTR Value 0
SYMBOL npn -1104 176 R0
SYMATTR InstName Q1
SYMATTR Value BC337-40
SYMBOL voltage -1328 -128 R0
WINDOW 0 39 47 Left 2
WINDOW 3 39 74 Left 2
WINDOW 123 0 0 Left 0
WINDOW 39 0 0 Left 0
SYMATTR InstName V4
SYMATTR Value 3.3
SYMBOL res -1152 208 R90
WINDOW 0 0 56 VBottom 2
WINDOW 3 32 56 VTop 2
SYMATTR InstName R5
SYMATTR Value 1.5K
SYMBOL LED -1152 -16 R0
WINDOW 0 -41 28 Left 2
WINDOW 3 -27 50 Left 2
SYMATTR InstName D1
SYMBOL res -1152 -144 R0
SYMATTR InstName R6
SYMATTR Value 470
TEXT -808 -184 Left 2 !.tran 40m
TEXT -808 -152 Left 2 !.inc Opto_MOC3021.lib
TEXT -808 -120 Left 2 !.inc TRIAC_Q8004L4.lib
TEXT -72 56 Left 2 ;MOV\n470V
TEXT -304 32 Left 2 ;2W
TEXT -304 192 Left 2 ;400V
TEXT -736 216 Left 2 ;400V
