Version 4.1
SHEET 1 1508 1044
WIRE 752 -224 752 -272
WIRE 368 -192 368 -224
WIRE 480 -192 368 -192
WIRE 368 -160 368 -192
WIRE 480 -144 480 -192
WIRE 752 -112 752 -144
WIRE 928 -112 752 -112
WIRE 752 -80 752 -112
WIRE -272 -32 -272 -48
WIRE -160 -32 -272 -32
WIRE -16 -32 -80 -32
WIRE 176 -32 64 -32
WIRE 368 -32 368 -80
WIRE 368 -32 304 -32
WIRE 480 -32 480 -80
WIRE 480 -32 368 -32
WIRE 544 -32 480 -32
WIRE 688 -32 624 -32
WIRE -272 -16 -272 -32
WIRE 176 32 64 32
WIRE 368 32 304 32
WIRE -160 64 -192 64
WIRE -16 64 -80 64
WIRE 64 64 64 32
WIRE 752 64 752 16
WIRE -272 96 -272 64
WIRE -192 96 -192 64
WIRE -192 96 -272 96
WIRE 992 96 992 48
WIRE -272 128 -272 96
WIRE 992 224 992 176
WIRE -272 240 -272 224
WIRE -160 240 -272 240
WIRE -16 240 -80 240
WIRE 176 240 64 240
WIRE 368 240 368 32
WIRE 368 240 304 240
WIRE -272 272 -272 240
WIRE 176 304 112 304
WIRE 368 304 304 304
WIRE -160 336 -192 336
WIRE -16 336 -80 336
WIRE 112 336 112 304
WIRE 112 336 64 336
WIRE 992 336 992 288
WIRE -272 368 -272 352
WIRE -192 368 -192 336
WIRE -192 368 -272 368
WIRE 800 384 736 384
WIRE 928 384 880 384
WIRE -272 400 -272 368
WIRE 560 432 560 384
WIRE 992 480 992 432
WIRE -272 512 -272 496
WIRE -160 512 -272 512
WIRE -16 512 -80 512
WIRE 176 512 64 512
WIRE 368 512 368 304
WIRE 368 512 304 512
WIRE -272 544 -272 512
WIRE 560 560 560 512
WIRE 176 576 112 576
WIRE 368 576 304 576
WIRE -160 608 -192 608
WIRE -16 608 -80 608
WIRE 112 608 112 576
WIRE 112 608 64 608
WIRE 368 624 368 576
WIRE -272 640 -272 624
WIRE -192 640 -192 608
WIRE -192 640 -272 640
WIRE -272 672 -272 640
FLAG -272 128 0
FLAG 560 560 0
FLAG 560 384 VCC
FLAG 368 -224 VCC
FLAG 752 64 0
FLAG -272 400 0
FLAG -272 672 0
FLAG 368 624 0
FLAG -272 -48 L1
FLAG -272 224 L2
FLAG -272 496 L3
FLAG 752 -272 VCC
FLAG 928 -112 OUT
IOPIN 928 -112 Out
FLAG 992 480 0
FLAG 992 48 VCC
FLAG 736 384 OUT
IOPIN 736 384 In
SYMBOL res 352 -176 R0
SYMATTR InstName R1
SYMATTR Value 33k
SYMBOL voltage -272 80 R180
WINDOW 123 0 0 Left 0
WINDOW 39 0 0 Left 0
WINDOW 0 -65 72 Left 2
WINDOW 3 54 -107 VRight 2
SYMATTR InstName V1
SYMATTR Value SINE(0 310 50 20m 0 0 3)
SYMBOL res 80 -48 R90
WINDOW 0 -28 68 VBottom 2
WINDOW 3 -30 60 VTop 2
SYMATTR InstName R2
SYMATTR Value 33k
SYMBOL voltage 560 416 R0
WINDOW 123 0 0 Left 0
WINDOW 39 0 0 Left 0
WINDOW 0 42 39 Left 2
WINDOW 3 48 67 Left 2
SYMATTR InstName V2
SYMATTR Value 5
SYMBOL res -64 -48 R90
WINDOW 0 -31 66 VBottom 2
WINDOW 3 -31 58 VTop 2
SYMATTR InstName R3
SYMATTR Value 33k
SYMBOL res 80 48 R90
WINDOW 0 62 60 VBottom 2
WINDOW 3 58 52 VTop 2
SYMATTR InstName R4
SYMATTR Value 33k
SYMBOL res -64 48 R90
WINDOW 0 63 61 VBottom 2
WINDOW 3 61 53 VTop 2
SYMATTR InstName R5
SYMATTR Value 33k
SYMBOL cap 464 -144 R0
SYMATTR InstName C1
SYMATTR Value 1µ
SYMBOL npn 688 -80 R0
SYMATTR InstName Q1
SYMBOL res 640 -48 R90
WINDOW 0 0 56 VBottom 2
WINDOW 3 32 56 VTop 2
SYMATTR InstName R9
SYMATTR Value 10k
SYMBOL LED 976 224 R0
WINDOW 0 -57 21 Left 2
WINDOW 3 -32 42 Left 2
SYMATTR InstName LED
SYMBOL Contrib\\Wurth\\Optoelectronics\\Optocoupler\\WL-OCPT\\WL-OCPT_Series_354 240 0 R0
SYMATTR InstName Q2
SYMBOL voltage -272 368 R180
WINDOW 123 0 0 Left 0
WINDOW 39 0 0 Left 0
WINDOW 0 55 64 Left 2
WINDOW 3 99 -89 VRight 2
SYMATTR InstName V3
SYMATTR Value SINE(0 310 50 0 0 120)
SYMBOL res 80 224 R90
WINDOW 0 -30 59 VBottom 2
WINDOW 3 -33 56 VTop 2
SYMATTR InstName R10
SYMATTR Value 33k
SYMBOL res -64 224 R90
WINDOW 0 -30 61 VBottom 2
WINDOW 3 -33 61 VTop 2
SYMATTR InstName R11
SYMATTR Value 33k
SYMBOL Contrib\\Wurth\\Optoelectronics\\Optocoupler\\WL-OCPT\\WL-OCPT_Series_354 240 272 R0
SYMATTR InstName Q4
SYMBOL res 80 320 R90
WINDOW 0 62 49 VBottom 2
WINDOW 3 62 49 VTop 2
SYMATTR InstName R12
SYMATTR Value 33k
SYMBOL res -64 320 R90
WINDOW 0 67 51 VBottom 2
WINDOW 3 62 53 VTop 2
SYMATTR InstName R13
SYMATTR Value 33k
SYMBOL voltage -272 640 R180
WINDOW 123 0 0 Left 0
WINDOW 39 0 0 Left 0
WINDOW 0 -63 80 Left 2
WINDOW 3 50 -62 VRight 2
SYMATTR InstName V4
SYMATTR Value SINE(0 310 50 0 0 240)
SYMBOL res 80 496 R90
WINDOW 0 -32 61 VBottom 2
WINDOW 3 -35 53 VTop 2
SYMATTR InstName R6
SYMATTR Value 33k
SYMBOL res -64 496 R90
WINDOW 0 -35 56 VBottom 2
WINDOW 3 -38 56 VTop 2
SYMATTR InstName R14
SYMATTR Value 33k
SYMBOL Contrib\\Wurth\\Optoelectronics\\Optocoupler\\WL-OCPT\\WL-OCPT_Series_354 240 544 R0
SYMATTR InstName Q3
SYMBOL res 80 592 R90
WINDOW 0 64 46 VBottom 2
WINDOW 3 62 49 VTop 2
SYMATTR InstName R15
SYMATTR Value 33k
SYMBOL res -64 592 R90
WINDOW 0 67 56 VBottom 2
WINDOW 3 67 54 VTop 2
SYMATTR InstName R16
SYMATTR Value 33k
SYMBOL res 736 -240 R0
SYMATTR InstName R7
SYMATTR Value 2.2k
SYMBOL npn 928 336 R0
SYMATTR InstName Q5
SYMBOL res 976 80 R0
SYMATTR InstName R17
SYMATTR Value 2.2k
SYMBOL res 896 368 R90
WINDOW 0 0 56 VBottom 2
WINDOW 3 32 56 VTop 2
SYMATTR InstName R8
SYMATTR Value 33k
TEXT 408 400 Left 2 !.tran 120m
TEXT 200 80 Left 2 ;LTV814
TEXT 200 352 Left 2 ;LTV814
TEXT 200 624 Left 2 ;LTV814
