Version 4.1
SHEET 1 1692 1044
WIRE 368 -320 368 -384
WIRE -608 -192 -608 -208
WIRE -528 -192 -608 -192
WIRE -288 -192 -448 -192
WIRE -160 -192 -288 -192
WIRE -16 -192 -80 -192
WIRE 176 -192 64 -192
WIRE 368 -192 368 -240
WIRE 368 -192 304 -192
WIRE -608 -176 -608 -192
WIRE -288 -160 -288 -192
WIRE 752 -160 752 -208
WIRE -304 -144 -384 -144
WIRE -160 -128 -192 -128
WIRE -16 -128 -80 -128
WIRE 176 -128 64 -128
WIRE 368 -128 304 -128
WIRE -304 -112 -336 -112
WIRE -336 -64 -336 -112
WIRE -336 -64 -384 -64
WIRE -608 -32 -608 -96
WIRE -288 -32 -288 -96
WIRE -288 -32 -608 -32
WIRE -192 -32 -192 -128
WIRE -192 -32 -288 -32
WIRE 752 -32 752 -80
WIRE -608 0 -608 -32
WIRE -608 160 -608 144
WIRE -544 160 -608 160
WIRE -288 160 -464 160
WIRE -160 160 -288 160
WIRE -16 160 -80 160
WIRE 176 160 64 160
WIRE 368 160 368 -128
WIRE 368 160 304 160
WIRE -608 192 -608 160
WIRE -288 192 -288 160
WIRE -304 208 -384 208
WIRE -160 224 -192 224
WIRE -16 224 -80 224
WIRE 176 224 64 224
WIRE 368 224 304 224
WIRE -304 240 -336 240
WIRE 704 272 704 224
WIRE -336 288 -336 240
WIRE -336 288 -384 288
WIRE -608 320 -608 272
WIRE -288 320 -288 256
WIRE -288 320 -608 320
WIRE -192 320 -192 224
WIRE -192 320 -288 320
WIRE -608 352 -608 320
WIRE 592 384 592 336
WIRE 704 400 704 352
WIRE 592 496 592 464
WIRE 704 496 704 464
WIRE 704 496 592 496
WIRE 816 496 704 496
WIRE -608 512 -608 496
WIRE -544 512 -608 512
WIRE -288 512 -464 512
WIRE -160 512 -288 512
WIRE -16 512 -80 512
WIRE 176 512 64 512
WIRE 368 512 368 224
WIRE 368 512 304 512
WIRE 592 528 592 496
WIRE -608 544 -608 512
WIRE -288 544 -288 512
WIRE -304 560 -384 560
WIRE -160 576 -192 576
WIRE -16 576 -80 576
WIRE 176 576 64 576
WIRE 384 576 304 576
WIRE 480 576 384 576
WIRE 528 576 480 576
WIRE -304 592 -336 592
WIRE 480 608 480 576
WIRE 384 624 384 576
WIRE -336 640 -336 592
WIRE -336 640 -384 640
WIRE -608 672 -608 624
WIRE -288 672 -288 608
WIRE -288 672 -608 672
WIRE -192 672 -192 576
WIRE -192 672 -288 672
WIRE 592 672 592 624
WIRE -608 704 -608 672
WIRE 384 720 384 688
WIRE 480 720 480 688
FLAG -608 0 0
FLAG 752 -32 0
FLAG 752 -208 VCC
FLAG 368 -384 VCC
FLAG 592 672 0
FLAG -608 352 0
FLAG -608 704 0
FLAG -608 -208 L1
FLAG -608 144 L2
FLAG -608 496 L3
FLAG 592 336 VCC
FLAG 816 496 OUT
IOPIN 816 496 Out
FLAG 704 224 VCC
FLAG 480 720 0
FLAG 384 720 0
SYMBOL res 352 -336 R0
SYMATTR InstName R1
SYMATTR Value 22
SYMBOL voltage -608 -80 R180
WINDOW 123 0 0 Left 0
WINDOW 39 0 0 Left 0
WINDOW 0 -65 72 Left 2
WINDOW 3 54 -107 VRight 2
SYMATTR InstName V1
SYMATTR Value SINE(0 310 50 20m 0 0 3)
SYMBOL res 80 -208 R90
WINDOW 0 -28 68 VBottom 2
WINDOW 3 -30 60 VTop 2
SYMATTR InstName R2
SYMATTR Value 33k
SYMBOL voltage 752 -176 R0
WINDOW 123 0 0 Left 0
WINDOW 39 0 0 Left 0
WINDOW 0 42 39 Left 2
WINDOW 3 48 67 Left 2
SYMATTR InstName V2
SYMATTR Value 3.3
SYMBOL res -64 -208 R90
WINDOW 0 -31 66 VBottom 2
WINDOW 3 -31 58 VTop 2
SYMATTR InstName R3
SYMATTR Value 33k
SYMBOL res 80 -144 R90
WINDOW 0 62 60 VBottom 2
WINDOW 3 58 52 VTop 2
SYMATTR InstName R4
SYMATTR Value 33k
SYMBOL res -64 -144 R90
WINDOW 0 63 61 VBottom 2
WINDOW 3 61 53 VTop 2
SYMATTR InstName R5
SYMATTR Value 33k
SYMBOL cap 368 624 R0
WINDOW 0 -40 26 Left 2
WINDOW 3 -42 50 Left 2
SYMATTR InstName C1
SYMATTR Value 10µ
SYMBOL npn 528 528 R0
SYMATTR InstName Q1
SYMBOL res 496 704 R180
WINDOW 0 42 76 Left 2
WINDOW 3 41 49 Left 2
SYMATTR InstName R9
SYMATTR Value 33k
SYMBOL LED 688 400 R0
WINDOW 0 -57 21 Left 2
WINDOW 3 -32 42 Left 2
SYMATTR InstName LED
SYMBOL Contrib\\Wurth\\Optoelectronics\\Optocoupler\\WL-OCPT\\WL-OCPT_Series_354 240 -160 R0
SYMATTR InstName Q2
SYMBOL voltage -608 288 R180
WINDOW 123 0 0 Left 0
WINDOW 39 0 0 Left 0
WINDOW 0 -69 74 Left 2
WINDOW 3 52 -89 VRight 2
SYMATTR InstName V3
SYMATTR Value SINE(0 310 50 0 0 120)
SYMBOL res 80 144 R90
WINDOW 0 -30 59 VBottom 2
WINDOW 3 -33 56 VTop 2
SYMATTR InstName R10
SYMATTR Value 33k
SYMBOL res -64 144 R90
WINDOW 0 -30 61 VBottom 2
WINDOW 3 -33 61 VTop 2
SYMATTR InstName R11
SYMATTR Value 33k
SYMBOL Contrib\\Wurth\\Optoelectronics\\Optocoupler\\WL-OCPT\\WL-OCPT_Series_354 240 192 R0
SYMATTR InstName Q4
SYMBOL res 80 208 R90
WINDOW 0 62 49 VBottom 2
WINDOW 3 62 49 VTop 2
SYMATTR InstName R12
SYMATTR Value 33k
SYMBOL res -64 208 R90
WINDOW 0 67 51 VBottom 2
WINDOW 3 62 53 VTop 2
SYMATTR InstName R13
SYMATTR Value 33k
SYMBOL voltage -608 640 R180
WINDOW 123 0 0 Left 0
WINDOW 39 0 0 Left 0
WINDOW 0 -63 80 Left 2
WINDOW 3 50 -62 VRight 2
SYMATTR InstName V4
SYMATTR Value SINE(0 310 50 0 0 240)
SYMBOL res 80 496 R90
WINDOW 0 -32 61 VBottom 2
WINDOW 3 -35 53 VTop 2
SYMATTR InstName R6
SYMATTR Value 33k
SYMBOL res -64 496 R90
WINDOW 0 -35 56 VBottom 2
WINDOW 3 -38 56 VTop 2
SYMATTR InstName R14
SYMATTR Value 33k
SYMBOL Contrib\\Wurth\\Optoelectronics\\Optocoupler\\WL-OCPT\\WL-OCPT_Series_354 240 544 R0
SYMATTR InstName Q3
SYMBOL res 80 560 R90
WINDOW 0 64 46 VBottom 2
WINDOW 3 62 49 VTop 2
SYMATTR InstName R15
SYMATTR Value 33k
SYMBOL res -64 560 R90
WINDOW 0 67 56 VBottom 2
WINDOW 3 67 54 VTop 2
SYMATTR InstName R16
SYMATTR Value 33k
SYMBOL res 576 368 R0
WINDOW 0 -46 51 Left 2
WINDOW 3 -59 80 Left 2
SYMATTR InstName R7
SYMATTR Value 4.7k
SYMBOL res 688 256 R0
SYMATTR InstName R17
SYMATTR Value 670
SYMBOL res -432 -208 R90
WINDOW 0 -31 66 VBottom 2
WINDOW 3 -31 58 VTop 2
SYMATTR InstName Fuse1
SYMATTR Value 0
SYMBOL res -448 144 R90
WINDOW 0 -31 66 VBottom 2
WINDOW 3 -31 58 VTop 2
SYMATTR InstName Fuse2
SYMATTR Value 0
SYMBOL res -448 496 R90
WINDOW 0 -31 66 VBottom 2
WINDOW 3 -31 58 VTop 2
SYMATTR InstName Fuse3
SYMATTR Value 0
SYMBOL SpecialFunctions\\varistor -272 -64 M180
WINDOW 0 8 96 Left 2
SYMATTR InstName A1
SYMBOL voltage -384 -160 R0
WINDOW 0 -72 42 Left 2
WINDOW 3 -86 70 Left 2
WINDOW 123 0 0 Left 0
WINDOW 39 0 0 Left 0
SYMATTR InstName V5
SYMATTR Value 470
SYMBOL SpecialFunctions\\varistor -272 640 M180
WINDOW 0 8 96 Left 2
SYMATTR InstName A3
SYMBOL voltage -384 544 R0
WINDOW 0 -72 42 Left 2
WINDOW 3 -86 70 Left 2
WINDOW 123 0 0 Left 0
WINDOW 39 0 0 Left 0
SYMATTR InstName V7
SYMATTR Value 470
SYMBOL SpecialFunctions\\varistor -272 288 M180
WINDOW 0 8 96 Left 2
SYMATTR InstName A2
SYMBOL voltage -384 192 R0
WINDOW 0 -72 42 Left 2
WINDOW 3 -86 70 Left 2
WINDOW 123 0 0 Left 0
WINDOW 39 0 0 Left 0
SYMATTR InstName V6
SYMATTR Value 470
TEXT 600 -192 Left 2 !.tran 200m
TEXT 200 -80 Left 2 ;LTV814
TEXT 200 272 Left 2 ;LTV814
TEXT 200 624 Left 2 ;LTV814
TEXT -264 -136 Left 2 ;MOV\n470
TEXT -264 568 Left 2 ;MOV\n470
TEXT -264 216 Left 2 ;MOV\n470
