Version 4.1
SHEET 1 1332 680
WIRE 784 -176 784 -192
WIRE 784 -176 720 -176
WIRE 560 -160 560 -192
WIRE 784 -144 784 -176
WIRE 320 -128 320 -176
WIRE 720 -128 720 -176
WIRE 560 -32 560 -80
WIRE 720 -32 720 -64
WIRE 784 -32 784 -64
WIRE 784 -32 720 -32
WIRE 320 0 320 -48
WIRE 784 0 784 -32
WIRE 560 112 560 32
WIRE 784 112 784 80
WIRE 784 112 560 112
WIRE 832 112 784 112
WIRE 784 144 784 112
WIRE 928 144 784 144
WIRE 784 176 784 144
WIRE 928 192 928 144
WIRE 336 224 336 192
WIRE 496 224 336 224
WIRE 688 224 576 224
WIRE 720 224 688 224
WIRE 336 256 336 224
WIRE 688 272 688 224
WIRE 784 304 784 272
WIRE 928 304 928 256
WIRE 928 304 784 304
WIRE 336 384 336 336
WIRE 688 384 688 352
WIRE 784 384 784 304
WIRE 784 384 688 384
WIRE 784 416 784 384
FLAG 336 384 0
FLAG 320 0 0
FLAG 336 192 IN
FLAG 784 416 0
FLAG 320 -176 VDD
FLAG 784 -192 VDD
FLAG 832 112 OUT
FLAG 560 -192 VDD
SYMBOL voltage 336 240 R0
WINDOW 123 0 0 Left 0
WINDOW 39 0 0 Left 0
WINDOW 0 44 50 Left 2
WINDOW 3 43 83 Invisible 2
SYMATTR InstName V1
SYMATTR Value PULSE(0 3.3 2 1n 1n 2 4)
SYMBOL res 592 208 R90
WINDOW 0 0 56 VBottom 2
WINDOW 3 32 56 VTop 2
SYMATTR InstName R2
SYMATTR Value 1K
SYMBOL voltage 320 -144 R0
WINDOW 123 0 0 Left 0
WINDOW 39 0 0 Left 0
WINDOW 0 42 45 Left 2
WINDOW 3 48 74 Left 2
SYMATTR InstName V2
SYMATTR Value 12
SYMBOL npn 720 176 R0
SYMATTR InstName Q2
SYMATTR Value BC337-40
SYMBOL res 672 256 R0
WINDOW 0 -46 41 Left 2
WINDOW 3 -51 65 Left 2
SYMATTR InstName R3
SYMATTR Value 10k
SYMBOL ind 768 -160 R0
WINDOW 3 39 80 Left 0
SYMATTR Value 25m
SYMATTR InstName L1
SYMATTR SpiceLine Rser=120
SYMBOL res 768 -16 R0
WINDOW 0 -42 37 Left 2
WINDOW 3 -49 64 Left 2
SYMATTR InstName R4
SYMATTR Value 0.1
SYMBOL diode 944 256 R180
WINDOW 0 -40 44 Left 2
WINDOW 3 -94 21 Left 2
SYMATTR InstName D2
SYMATTR Value 1N4148
SYMBOL LED 544 -32 R0
WINDOW 0 -55 22 Left 2
WINDOW 3 -32 45 Left 2
SYMATTR InstName LED
SYMBOL res 544 -176 R0
WINDOW 0 -49 49 Left 2
WINDOW 3 -63 75 Left 2
SYMATTR InstName R5
SYMATTR Value 4.7k
SYMBOL schottky 736 -64 R180
WINDOW 0 50 45 Left 2
WINDOW 3 47 18 Left 2
SYMATTR InstName D4
SYMATTR Value 1N5819
TEXT 288 56 Left 2 !.tran 10s
TEXT 384 208 Left 2 ;3.3v
