Version 4.1
SHEET 1 880 680
WIRE 384 112 224 112
WIRE 224 144 224 112
WIRE 384 144 384 112
WIRE 176 160 -80 160
WIRE -80 192 -80 160
WIRE 176 208 128 208
WIRE 128 256 128 208
WIRE 224 272 224 224
WIRE 384 272 384 224
WIRE -80 320 -80 272
FLAG 224 272 0
FLAG 384 272 0
FLAG -80 320 0
FLAG 128 256 0
SYMBOL g 224 128 R0
WINDOW 0 37 35 Left 2
WINDOW 3 40 64 Left 2
SYMATTR InstName G1
SYMATTR Value 5
SYMBOL res 368 128 R0
SYMATTR InstName R1
SYMATTR Value 10k
SYMBOL voltage -80 176 R0
WINDOW 123 0 0 Left 0
WINDOW 39 0 0 Left 0
WINDOW 0 39 44 Left 2
WINDOW 3 42 70 Left 2
SYMATTR InstName V1
SYMATTR Value 2
TEXT 16 328 Left 2 !.tran 10m
