Version 4.1
SHEET 1 880 680
WIRE 80 32 -64 32
WIRE 80 64 80 32
WIRE -64 80 -64 32
WIRE 80 176 80 144
WIRE 176 176 80 176
WIRE 80 208 80 176
WIRE 176 208 176 176
FLAG 80 288 0
FLAG 176 288 0
FLAG -64 160 0
SYMBOL res 64 48 R0
SYMATTR InstName R1
SYMATTR Value 50
SYMBOL res 64 192 R0
SYMATTR InstName R2
SYMATTR Value 50
SYMBOL res 160 192 R0
SYMATTR InstName R3
SYMATTR Value {R}
SYMBOL voltage -64 64 R0
WINDOW 123 0 0 Left 2
WINDOW 39 0 0 Left 2
WINDOW 0 36 43 Left 2
WINDOW 3 39 70 Left 2
SYMATTR InstName V1
SYMATTR Value 10
TEXT -72 352 Left 2 !.step param R 5k 10k 1k
TEXT -72 392 Left 2 !.tran 10m
