Version 4.1
SHEET 1 880 680
WIRE 160 64 112 64
WIRE 272 64 160 64
WIRE 112 112 112 64
WIRE 272 112 272 64
WIRE 112 224 112 176
WIRE 272 224 272 192
FLAG 272 224 0
FLAG 112 224 0
FLAG 160 64 OUT
SYMBOL cap 96 112 R0
SYMATTR InstName C1
SYMATTR Value 470µ
SYMBOL res 256 96 R0
SYMATTR InstName R1
SYMATTR Value 3.3k
TEXT -96 112 Left 2 !.ic V(OUT)=12
TEXT -88 64 Left 2 !.tran 10s
TEXT -96 -88 Left 4 ;Example of setting initial conditions
