Version 4.1
SHEET 1 1852 680
WIRE 80 -176 80 -224
WIRE 304 -176 304 -224
WIRE 304 -48 304 -96
WIRE 80 -32 80 -96
WIRE 304 48 304 16
WIRE -304 96 -304 64
WIRE -176 96 -304 96
WIRE -64 96 -112 96
WIRE 112 96 16 96
WIRE 176 96 112 96
WIRE 240 96 176 96
WIRE -304 144 -304 96
WIRE 112 144 112 96
WIRE 176 160 176 96
WIRE 304 192 304 144
WIRE 112 240 112 208
WIRE -304 256 -304 224
WIRE 176 272 176 240
FLAG -304 256 0
FLAG 80 -32 0
FLAG 304 -224 VDD
FLAG 80 -224 VDD
FLAG 304 192 0
FLAG 176 272 0
FLAG 112 240 0
FLAG -304 64 IN
SYMBOL voltage -304 128 R0
WINDOW 3 24 96 Invisible 2
WINDOW 123 0 0 Left 0
WINDOW 39 0 0 Left 0
WINDOW 0 39 41 Left 2
SYMATTR Value PULSE(0 5 0 {0.01/Fs} {0.01/Fs} {0.5/Fs} {1/Fs} 20)
SYMATTR InstName V1
SYMBOL npn 240 48 R0
SYMATTR InstName Q1
SYMATTR Value BC337-40
SYMBOL res 32 80 R90
WINDOW 0 0 56 VBottom 2
WINDOW 3 32 56 VTop 2
SYMATTR InstName R1
SYMATTR Value 2.2k
SYMBOL voltage 80 -192 R0
WINDOW 0 37 40 Left 2
WINDOW 3 37 71 Left 2
WINDOW 123 0 0 Left 0
WINDOW 39 0 0 Left 0
SYMATTR InstName V2
SYMATTR Value 5
SYMBOL res 288 -192 R0
SYMATTR InstName R2
SYMATTR Value 1k
SYMBOL cap -112 80 R90
WINDOW 0 0 32 VBottom 2
WINDOW 3 32 32 VTop 2
SYMATTR InstName C1
SYMATTR Value 100n
SYMBOL res 160 144 R0
SYMATTR InstName R3
SYMATTR Value 10k
SYMBOL diode 128 208 R180
WINDOW 0 49 40 Left 2
WINDOW 3 48 16 Left 2
SYMATTR InstName D2
SYMATTR Value BAT54
SYMBOL Contrib\\Wurth\\Optoelectronics\\SignalLED\\Mono-color\\WL-TMRW 304 0 R0
WINDOW 38 17 15 Invisible 2
WINDOW 0 -73 -22 Left 2
SYMATTR InstName LED
TEXT -296 -136 Left 2 !.param Fs=10KHz
TEXT -296 -168 Left 2 !.tran 5m
TEXT 184 8 Left 2 ;YELLOW
