Version 4.1
SHEET 1 2556 1396
WIRE 928 -224 928 -256
WIRE 752 -160 752 -208
WIRE 208 -128 -80 -128
WIRE 336 -128 288 -128
WIRE 448 -128 400 -128
WIRE 1008 -64 1008 -112
WIRE 208 -48 48 -48
WIRE 336 -48 288 -48
WIRE 448 -48 448 -128
WIRE 448 -48 400 -48
WIRE 512 -48 448 -48
WIRE 752 -48 752 -80
WIRE 752 -48 704 -48
WIRE 976 -48 752 -48
WIRE 1216 -32 1040 -32
WIRE 928 -16 928 -144
WIRE 976 -16 928 -16
WIRE 928 32 928 -16
WIRE 208 48 -208 48
WIRE 512 48 288 48
WIRE 752 48 704 48
WIRE 1008 48 1008 0
WIRE 752 96 752 48
WIRE 928 128 928 96
WIRE 1584 160 1584 128
WIRE 864 208 864 176
WIRE 752 240 752 192
WIRE 1216 256 1216 -32
WIRE 1264 256 1216 256
WIRE 1392 256 1344 256
WIRE 48 272 48 -48
WIRE 208 272 48 272
WIRE 336 272 288 272
WIRE 448 272 400 272
WIRE 1664 320 1664 272
WIRE 1040 336 1040 288
WIRE 1264 336 1184 336
WIRE 1392 336 1392 256
WIRE 1392 336 1344 336
WIRE 1472 336 1392 336
WIRE 1632 336 1472 336
WIRE -208 352 -208 48
WIRE 208 352 -208 352
WIRE 336 352 288 352
WIRE 448 352 448 272
WIRE 448 352 400 352
WIRE 512 352 448 352
WIRE 752 352 752 320
WIRE 752 352 704 352
WIRE 1008 352 752 352
WIRE 1824 352 1696 352
WIRE 1184 368 1184 336
WIRE 1184 368 1072 368
WIRE 1584 368 1584 240
WIRE 1632 368 1584 368
WIRE 864 384 864 288
WIRE 1008 384 864 384
WIRE 1264 416 1216 416
WIRE 1392 416 1392 336
WIRE 1392 416 1344 416
WIRE 1584 416 1584 368
WIRE 1472 432 1472 336
WIRE 1664 432 1664 384
WIRE -80 448 -80 -128
WIRE 208 448 -80 448
WIRE 512 448 288 448
WIRE 752 448 704 448
WIRE 1040 448 1040 400
WIRE 864 464 864 384
WIRE 752 496 752 448
WIRE 1584 512 1584 480
WIRE 1472 544 1472 512
WIRE 864 560 864 528
WIRE 928 624 928 592
WIRE 752 640 752 592
WIRE -208 672 -208 352
WIRE 208 672 -208 672
WIRE 336 672 288 672
WIRE 448 672 400 672
WIRE 1040 736 1040 688
WIRE -80 752 -80 448
WIRE 208 752 -80 752
WIRE 336 752 288 752
WIRE 448 752 448 672
WIRE 448 752 400 752
WIRE 512 752 448 752
WIRE 752 752 752 720
WIRE 752 752 704 752
WIRE 1008 752 752 752
WIRE 1216 768 1216 416
WIRE 1216 768 1072 768
WIRE 928 784 928 704
WIRE 1008 784 928 784
WIRE 48 848 48 272
WIRE 208 848 48 848
WIRE 512 848 288 848
WIRE 752 848 704 848
WIRE 1040 848 1040 800
WIRE 928 880 928 784
WIRE 752 896 752 848
WIRE -208 944 -208 672
WIRE -80 944 -80 752
WIRE 48 944 48 848
WIRE 928 976 928 944
WIRE -208 1088 -208 1024
WIRE -208 1088 -240 1088
WIRE -80 1088 -80 1024
WIRE -80 1088 -112 1088
WIRE 48 1088 48 1024
WIRE 48 1088 16 1088
WIRE -208 1136 -208 1088
WIRE -80 1136 -80 1088
WIRE 48 1136 48 1088
WIRE 784 1184 784 1136
WIRE -208 1248 -208 1216
WIRE -80 1248 -80 1216
WIRE 48 1248 48 1216
WIRE 784 1296 784 1264
FLAG -208 1248 0
FLAG -80 1248 0
FLAG 48 1248 0
FLAG 752 96 0
FLAG 784 1296 0
FLAG 784 1136 VCC
FLAG 752 -208 VCC
FLAG -240 1088 L1
FLAG -112 1088 L2
FLAG 16 1088 L3
FLAG 752 496 0
FLAG 752 192 VCC
FLAG 752 896 0
FLAG 752 592 VCC
FLAG 1008 -112 VCC
FLAG 1008 48 0
FLAG 1040 288 VCC
FLAG 1040 448 0
FLAG 1040 688 VCC
FLAG 1040 848 0
FLAG 1824 352 OUT
IOPIN 1824 352 Out
FLAG 928 128 0
FLAG 928 -256 VCC
FLAG 928 976 0
FLAG 928 592 VCC
FLAG 864 560 0
FLAG 864 176 VCC
FLAG 1664 272 VCC
FLAG 1664 432 0
FLAG 1584 512 0
FLAG 1584 128 VCC
FLAG 1472 544 0
SYMBOL voltage -208 1232 R180
WINDOW 3 -49 -161 VRight 2
WINDOW 123 0 0 Left 0
WINDOW 39 0 0 Left 0
SYMATTR Value SINE(0 310 50 0 0 120)
SYMATTR InstName V1
SYMBOL voltage -80 1232 R180
WINDOW 3 -50 -158 VRight 2
WINDOW 123 0 0 Left 0
WINDOW 39 0 0 Left 0
SYMATTR Value SINE(0 310 50 0 0 240)
SYMATTR InstName V2
SYMBOL voltage 48 1232 R180
WINDOW 3 -52 -136 VRight 2
WINDOW 123 0 0 Left 0
WINDOW 39 0 0 Left 0
SYMATTR Value SINE(0 310 50 0 0 0)
SYMATTR InstName V3
SYMBOL Optos\\PC817A 608 0 R0
SYMATTR InstName U1
SYMBOL res 736 -176 R0
SYMATTR InstName R1
SYMATTR Value 100k
SYMBOL voltage 784 1168 R0
WINDOW 123 0 0 Left 0
WINDOW 39 0 0 Left 0
SYMATTR InstName V4
SYMATTR Value 5
SYMBOL res -224 928 R0
SYMATTR InstName F1
SYMATTR Value 0.1
SYMBOL res -96 928 R0
SYMATTR InstName F2
SYMATTR Value 0.1
SYMBOL res 32 928 R0
SYMATTR InstName F3
SYMATTR Value 0.1
SYMBOL diode 336 -32 R270
WINDOW 0 32 32 VTop 2
WINDOW 3 0 32 VBottom 2
SYMATTR InstName D1
SYMATTR Value 1N4148
SYMBOL diode 336 -112 R270
WINDOW 0 32 32 VTop 2
WINDOW 3 0 32 VBottom 2
SYMATTR InstName D2
SYMATTR Value 1N4148
SYMBOL Optos\\PC817A 608 400 R0
SYMATTR InstName U2
SYMBOL res 736 224 R0
SYMATTR InstName R3
SYMATTR Value 100k
SYMBOL diode 336 368 R270
WINDOW 0 32 32 VTop 2
WINDOW 3 0 32 VBottom 2
SYMATTR InstName D3
SYMATTR Value 1N4148
SYMBOL diode 336 288 R270
WINDOW 0 32 32 VTop 2
WINDOW 3 0 32 VBottom 2
SYMATTR InstName D4
SYMATTR Value 1N4148
SYMBOL Optos\\PC817A 608 800 R0
SYMATTR InstName U3
SYMBOL res 736 624 R0
SYMATTR InstName R6
SYMATTR Value 100k
SYMBOL diode 336 768 R270
WINDOW 0 32 32 VTop 2
WINDOW 3 0 32 VBottom 2
SYMATTR InstName D5
SYMATTR Value 1N4148
SYMBOL diode 336 688 R270
WINDOW 0 32 32 VTop 2
WINDOW 3 0 32 VBottom 2
SYMATTR InstName D6
SYMATTR Value 1N4148
SYMBOL res 304 -144 R90
WINDOW 0 0 56 VBottom 2
WINDOW 3 32 56 VTop 2
SYMATTR InstName R7
SYMATTR Value 100k
SYMBOL res 304 -64 R90
WINDOW 0 0 56 VBottom 2
WINDOW 3 32 56 VTop 2
SYMATTR InstName R8
SYMATTR Value 100k
SYMBOL res 304 32 R90
WINDOW 0 0 56 VBottom 2
WINDOW 3 32 56 VTop 2
SYMATTR InstName R9
SYMATTR Value 100k
SYMBOL res 304 256 R90
WINDOW 0 0 56 VBottom 2
WINDOW 3 32 56 VTop 2
SYMATTR InstName R10
SYMATTR Value 100k
SYMBOL res 304 336 R90
WINDOW 0 0 56 VBottom 2
WINDOW 3 32 56 VTop 2
SYMATTR InstName R11
SYMATTR Value 100k
SYMBOL res 304 432 R90
WINDOW 0 0 56 VBottom 2
WINDOW 3 32 56 VTop 2
SYMATTR InstName R12
SYMATTR Value 100k
SYMBOL res 304 656 R90
WINDOW 0 0 56 VBottom 2
WINDOW 3 32 56 VTop 2
SYMATTR InstName R13
SYMATTR Value 100k
SYMBOL res 304 736 R90
WINDOW 0 0 56 VBottom 2
WINDOW 3 32 56 VTop 2
SYMATTR InstName R14
SYMATTR Value 100k
SYMBOL res 304 832 R90
WINDOW 0 0 56 VBottom 2
WINDOW 3 32 56 VTop 2
SYMATTR InstName R15
SYMATTR Value 100k
SYMBOL res 1360 400 R90
WINDOW 0 0 56 VBottom 2
WINDOW 3 32 56 VTop 2
SYMATTR InstName R4
SYMATTR Value 10k
SYMBOL res 1360 320 R90
WINDOW 0 0 56 VBottom 2
WINDOW 3 32 56 VTop 2
SYMATTR InstName R5
SYMATTR Value 10k
SYMBOL res 1360 240 R90
WINDOW 0 0 56 VBottom 2
WINDOW 3 32 56 VTop 2
SYMATTR InstName R16
SYMATTR Value 10k
SYMBOL Extra\\LM358 1008 -96 R0
SYMATTR InstName U5
SYMBOL Extra\\LM358 1040 304 R0
SYMATTR InstName U6
SYMBOL Extra\\LM358 1040 704 R0
SYMATTR InstName U7
SYMBOL diode 912 32 R0
SYMATTR InstName D7
SYMATTR Value 1N4148
SYMBOL res 912 -240 R0
SYMATTR InstName R19
SYMATTR Value 47k
SYMBOL diode 912 880 R0
SYMATTR InstName D8
SYMATTR Value 1N4148
SYMBOL res 912 608 R0
SYMATTR InstName R20
SYMATTR Value 47k
SYMBOL diode 848 464 R0
SYMATTR InstName D9
SYMATTR Value 1N4148
SYMBOL res 848 192 R0
SYMATTR InstName R21
SYMATTR Value 47k
SYMBOL Extra\\LM358 1664 288 R0
SYMATTR InstName U8
SYMBOL diode 1568 416 R0
SYMATTR InstName D10
SYMATTR Value 1N4148
SYMBOL res 1568 144 R0
SYMATTR InstName R22
SYMATTR Value 47k
SYMBOL res 1488 528 R180
WINDOW 0 36 76 Left 2
WINDOW 3 36 40 Left 2
SYMATTR InstName R23
SYMATTR Value 2.2k
TEXT 552 -160 Left 2 !.tran 30m
TEXT 896 1112 Left 2 !.inc LM358.lib
