Version 4.1
SHEET 1 2556 1396
WIRE 928 -224 928 -256
WIRE 752 -160 752 -208
WIRE 1328 -144 1328 -192
WIRE 208 -128 -80 -128
WIRE 336 -128 288 -128
WIRE 448 -128 400 -128
WIRE 1008 -64 1008 -112
WIRE 208 -48 48 -48
WIRE 336 -48 288 -48
WIRE 448 -48 448 -128
WIRE 448 -48 400 -48
WIRE 512 -48 448 -48
WIRE 752 -48 752 -80
WIRE 752 -48 704 -48
WIRE 976 -48 752 -48
WIRE 1216 -32 1040 -32
WIRE 1328 -32 1328 -64
WIRE 928 -16 928 -144
WIRE 928 -16 880 -16
WIRE 976 -16 928 -16
WIRE 928 32 928 -16
WIRE 208 48 -208 48
WIRE 512 48 288 48
WIRE 752 48 704 48
WIRE 1008 48 1008 0
WIRE 752 96 752 48
WIRE 928 128 928 96
WIRE 752 240 752 192
WIRE 1216 256 1216 -32
WIRE 1264 256 1216 256
WIRE 1392 256 1344 256
WIRE 48 272 48 -48
WIRE 208 272 48 272
WIRE 336 272 288 272
WIRE 448 272 400 272
WIRE 1024 336 1024 288
WIRE -208 352 -208 48
WIRE 208 352 -208 352
WIRE 336 352 288 352
WIRE 448 352 448 272
WIRE 448 352 400 352
WIRE 512 352 448 352
WIRE 752 352 752 320
WIRE 752 352 704 352
WIRE 992 352 752 352
WIRE 1648 352 1648 304
WIRE 1264 368 1056 368
WIRE 1392 368 1392 256
WIRE 1392 368 1344 368
WIRE 1456 368 1392 368
WIRE 1616 368 1456 368
WIRE 992 384 944 384
WIRE 1760 384 1680 384
WIRE 1616 400 1552 400
WIRE -80 448 -80 -128
WIRE 208 448 -80 448
WIRE 512 448 288 448
WIRE 752 448 704 448
WIRE 1024 448 1024 400
WIRE 1264 448 1216 448
WIRE 1392 448 1392 368
WIRE 1392 448 1344 448
WIRE 1456 464 1456 368
WIRE 1648 464 1648 416
WIRE 752 496 752 448
WIRE 1456 576 1456 544
WIRE 752 640 752 592
WIRE -208 672 -208 352
WIRE 208 672 -208 672
WIRE 336 672 288 672
WIRE 448 672 400 672
WIRE 1024 736 1024 688
WIRE -80 752 -80 448
WIRE 208 752 -80 752
WIRE 336 752 288 752
WIRE 448 752 448 672
WIRE 448 752 400 752
WIRE 512 752 448 752
WIRE 752 752 752 720
WIRE 752 752 704 752
WIRE 992 752 752 752
WIRE 1216 768 1216 448
WIRE 1216 768 1056 768
WIRE 992 784 944 784
WIRE 48 848 48 272
WIRE 208 848 48 848
WIRE 512 848 288 848
WIRE 752 848 704 848
WIRE 1024 848 1024 800
WIRE 752 896 752 848
WIRE -208 912 -208 672
WIRE -208 912 -240 912
WIRE -80 912 -80 752
WIRE -80 912 -112 912
WIRE 48 912 48 848
WIRE 48 912 16 912
WIRE -208 960 -208 912
WIRE -80 960 -80 912
WIRE 48 960 48 912
WIRE -208 1072 -208 1040
WIRE -80 1072 -80 1040
WIRE 48 1072 48 1040
FLAG -208 1072 0
FLAG -80 1072 0
FLAG 48 1072 0
FLAG 752 96 0
FLAG 1328 -32 0
FLAG 1328 -192 VCC
FLAG 752 -208 VCC
FLAG -240 912 L1
FLAG -112 912 L2
FLAG 16 912 L3
FLAG 752 496 0
FLAG 752 192 VCC
FLAG 752 896 0
FLAG 752 592 VCC
FLAG 1008 -112 VCC
FLAG 1008 48 0
FLAG 1024 288 VCC
FLAG 1024 448 0
FLAG 1024 688 VCC
FLAG 1024 848 0
FLAG 1760 384 OUT
IOPIN 1760 384 Out
FLAG 928 128 0
FLAG 928 -256 VCC
FLAG 1648 304 VCC
FLAG 1648 464 0
FLAG 1456 576 0
FLAG 880 -16 REF
FLAG 944 384 REF
FLAG 944 784 REF
FLAG 1552 400 REF
SYMBOL voltage -208 1056 R180
WINDOW 3 -49 -161 VRight 2
WINDOW 123 0 0 Left 0
WINDOW 39 0 0 Left 0
SYMATTR Value SINE(0 310 50 0 0 0)
SYMATTR InstName V1
SYMBOL voltage -80 1056 R180
WINDOW 3 -50 -158 VRight 2
WINDOW 123 0 0 Left 0
WINDOW 39 0 0 Left 0
SYMATTR Value SINE(0 310 50 0 0 120)
SYMATTR InstName V2
SYMBOL voltage 48 1056 R180
WINDOW 3 -52 -136 VRight 2
WINDOW 123 0 0 Left 0
WINDOW 39 0 0 Left 0
SYMATTR Value SINE(0 310 50 0 0 240)
SYMATTR InstName V3
SYMBOL Optos\\PC817A 608 0 R0
SYMATTR InstName U1
SYMBOL res 736 -176 R0
SYMATTR InstName R1
SYMATTR Value 100k
SYMBOL voltage 1328 -160 R0
WINDOW 123 0 0 Left 0
WINDOW 39 0 0 Left 0
SYMATTR InstName V4
SYMATTR Value 5
SYMBOL diode 336 -32 R270
WINDOW 0 32 32 VTop 2
WINDOW 3 0 32 VBottom 2
SYMATTR InstName D1
SYMATTR Value 1N4148
SYMBOL diode 336 -112 R270
WINDOW 0 32 32 VTop 2
WINDOW 3 0 32 VBottom 2
SYMATTR InstName D2
SYMATTR Value 1N4148
SYMBOL Optos\\PC817A 608 400 R0
SYMATTR InstName U2
SYMBOL res 736 224 R0
SYMATTR InstName R3
SYMATTR Value 100k
SYMBOL diode 336 368 R270
WINDOW 0 32 32 VTop 2
WINDOW 3 0 32 VBottom 2
SYMATTR InstName D3
SYMATTR Value 1N4148
SYMBOL diode 336 288 R270
WINDOW 0 32 32 VTop 2
WINDOW 3 0 32 VBottom 2
SYMATTR InstName D4
SYMATTR Value 1N4148
SYMBOL Optos\\PC817A 608 800 R0
SYMATTR InstName U3
SYMBOL res 736 624 R0
SYMATTR InstName R6
SYMATTR Value 100k
SYMBOL diode 336 768 R270
WINDOW 0 32 32 VTop 2
WINDOW 3 0 32 VBottom 2
SYMATTR InstName D5
SYMATTR Value 1N4148
SYMBOL diode 336 688 R270
WINDOW 0 32 32 VTop 2
WINDOW 3 0 32 VBottom 2
SYMATTR InstName D6
SYMATTR Value 1N4148
SYMBOL res 304 -144 R90
WINDOW 0 0 56 VBottom 2
WINDOW 3 32 56 VTop 2
SYMATTR InstName R7
SYMATTR Value 100k
SYMBOL res 304 -64 R90
WINDOW 0 0 56 VBottom 2
WINDOW 3 32 56 VTop 2
SYMATTR InstName R8
SYMATTR Value 100k
SYMBOL res 304 32 R90
WINDOW 0 0 56 VBottom 2
WINDOW 3 32 56 VTop 2
SYMATTR InstName R9
SYMATTR Value 100k
SYMBOL res 304 256 R90
WINDOW 0 0 56 VBottom 2
WINDOW 3 32 56 VTop 2
SYMATTR InstName R10
SYMATTR Value 100k
SYMBOL res 304 336 R90
WINDOW 0 0 56 VBottom 2
WINDOW 3 32 56 VTop 2
SYMATTR InstName R11
SYMATTR Value 100k
SYMBOL res 304 432 R90
WINDOW 0 0 56 VBottom 2
WINDOW 3 32 56 VTop 2
SYMATTR InstName R12
SYMATTR Value 100k
SYMBOL res 304 656 R90
WINDOW 0 0 56 VBottom 2
WINDOW 3 32 56 VTop 2
SYMATTR InstName R13
SYMATTR Value 100k
SYMBOL res 304 736 R90
WINDOW 0 0 56 VBottom 2
WINDOW 3 32 56 VTop 2
SYMATTR InstName R14
SYMATTR Value 100k
SYMBOL res 304 832 R90
WINDOW 0 0 56 VBottom 2
WINDOW 3 32 56 VTop 2
SYMATTR InstName R15
SYMATTR Value 100k
SYMBOL res 1360 432 R90
WINDOW 0 0 56 VBottom 2
WINDOW 3 32 56 VTop 2
SYMATTR InstName R4
SYMATTR Value 10k
SYMBOL res 1360 352 R90
WINDOW 0 0 56 VBottom 2
WINDOW 3 32 56 VTop 2
SYMATTR InstName R5
SYMATTR Value 10k
SYMBOL res 1360 240 R90
WINDOW 0 0 56 VBottom 2
WINDOW 3 32 56 VTop 2
SYMATTR InstName R16
SYMATTR Value 10k
SYMBOL Extra\\LM358 1008 -96 R0
SYMATTR InstName U5
SYMBOL Extra\\LM358 1024 304 R0
SYMATTR InstName U6
SYMBOL Extra\\LM358 1024 704 R0
SYMATTR InstName U7
SYMBOL diode 912 32 R0
WINDOW 0 -40 24 Left 2
WINDOW 3 -92 46 Left 2
SYMATTR InstName D7
SYMATTR Value 1N4148
SYMBOL res 912 -240 R0
SYMATTR InstName R19
SYMATTR Value 47k
SYMBOL Extra\\LM358 1648 320 R0
WINDOW 0 31 98 Left 2
WINDOW 3 30 121 Left 2
SYMATTR InstName U8
SYMBOL res 1472 560 R180
WINDOW 0 -51 71 Left 2
WINDOW 3 -57 45 Left 2
SYMATTR InstName R23
SYMATTR Value 2.2k
TEXT 1432 -216 Left 2 !.tran 30m
TEXT 1432 -176 Left 2 !.inc LM358.lib
