* DIODES INCORPORATED AND ITS AFFILIATED COMPANIES AND SUBSIDIARIES (COLLECTIVELY, "DIODES") 
* PROVIDE THESE SPICE MODELS AND DATA (COLLECTIVELY, THE "SM DATA") "AS IS" AND WITHOUT ANY 
* REPRESENTATIONS OR WARRANTIES, EXPRESS OR IMPLIED, INCLUDING ANY WARRANTY OF MERCHANTABILITY 
* OR FITNESS FOR A PARTICULAR PURPOSE, ANY WARRANTY ARISING FROM COURSE OF DEALING OR COURSE OF 
* PERFORMANCE, OR ANY WARRANTY THAT ACCESS TO OR OPERATION OF THE SM DATA WILL BE UNINTERRUPTED, 
* OR THAT THE SM DATA OR ANY SIMULATION USING THE SM DATA WILL BE ERROR FREE. TO THE MAXIMUM 
* EXTENT PERMITTED BY LAW, IN NO EVENT WILL DIODES BE LIABLE FOR ANY DIRECT OR INDIRECT, 
* SPECIAL, INCIDENTAL, PUNITIVE OR CONSEQUENTIAL DAMAGES ARISING OUT OF OR IN CONNECTION WITH 
* THE PRODUCTION OR USE OF SM DATA, HOWEVER CAUSED AND UNDER WHATEVER CAUSE OF ACTION OR THEORY 
* OF LIABILITY BROUGHT (INCLUDING, WITHOUT LIMITATION, UNDER ANY CONTRACT, NEGLIGENCE OR OTHER 
* TORT THEORY OF LIABILITY), EVEN IF DIODES HAS BEEN ADVISED OF THE POSSIBILITY OF SUCH DAMAGES, 
* AND DIODES' TOTAL LIABILITY (WHETHER IN CONTRACT, TORT OR OTHERWISE) WITH REGARD TO THE SM 
* DATA WILL NOT, IN THE AGGREGATE, EXCEED ANY SUMS PAID BY YOU TO DIODES FOR THE SM DATA.


*DIODES_INC_SPICE_MODEL_DA1201Y
*ORIGIN=DZSL_DPG_SU
*SIMULATOR=PSPICE
*DATE=06/07/2012
*VERSION=1



.MODEL DA1201Y PNP IS=1.6E-13 NF=1 BF=210 VAF=175 ISE=3E-14 IKF=4.2
+ NE=1.4 BR=12 VAR=5.15 ISC=1E-13 NC=1.08 IKR=0.7 RC=0.013 RB=0.2 RE=0.016
+ QUASIMOD=1 RCO=4 GAMMA=1.4E-8 CJC=42E-12 MJC=0.32 VJC=0.44 CJE=237E-12
+ MJE=0.44 VJE=0.85 TF=0.95E-9 TR=22E-8 TRC1=.005 TRB1=.005 TRE1=.005 XTB=1.4 
*


*
*DIODES_INC_SPICE_MODEL
*ORIGIN=DZSL_DPG
*SIMULATOR=PSPICE
*DATE=08/01/2009
*VERSION=1
*
.MODEL 2DA1797 PNP IS=2.715E-13 BF=170 VAF=70 NF=1.004 IKF=2.75 ISE=1E-13
+ NE=1.535 BR=23 VAR=40 NR=1.005 IKR=.55 ISC=5.15E-14 NC=1.13 RB=.07
+ RE=.065 RC=.085 CJE=360E-12 TF=.94E-9 CJC=90E-12 TR=60E-9 VJC=.705
+ MJC=.46
*
*$


*DIODES_INC_SPICE_MODEL 2DB1182Q 
*SIMULATOR=SIMETRIX
*ORIGIN=DZSL_DPG_SU
*DATE=6Nov2012
*VERSION=1


.MODEL 2DB1182Q  PNP (IS=24E-14 NF=1.00 BF=200 ISE=10E-15 NE=1.28 VAF=127
+ IKF=3.34 BR=16.00 NR=1.00 ISC=30E-15 NC=1
+ VAR=20.0 IKR=5.25 RE=33.2m RB=0.133 RC=33.3m
+ XTB=1.5 CJE=411p VJE=.75 MJE=0.37 CJC=93.24p VJC=0.500
+ MJC=0.3300 TF=1.27n TR=230n EG=1.2 XTI=3)



*                (c)  2012 Diodes Inc
*
*   The copyright in these models  and  the designs embodied belong
*   to Diodes Incorporated (" Zetex ").  They  are  supplied
*   free of charge by Zetex for the purpose of research and design
*   and may be used or copied intact  (including this notice)  for
*   that purpose only.  All other rights are reserved.  The models
*   are believed accurate but no condition  or warranty  as to their
*   merchantability or fitness for purpose is given and no liability
*   in respect of any use is accepted by Diodes Incorporated, its distributors
*   or agents.
*
*   Diodes Zetex Semiconductors Ltd, Zetex Technology Park, Chadderton,
*   Oldham, United Kingdom, OL9 9LL
*


*DIODES_INC_SPICE_MODEL 2DB1184Q 
*SIMULATOR=SIMETRIX
*ORIGIN=DZSL_DPG_SU
*DATE=29Nov2012
*VERSION=1


.MODEL 2DB1184Q  PNP (IS=24E-14 NF=1.00 BF=200 ISE=10E-15 NE=1.28 VAF=127
+ IKF=3.34 BR=16.00 NR=1.00 ISC=30E-15 NC=1
+ VAR=20.0 IKR=5.25 RE=33.2m RB=0.133 RC=33.3m
+ XTB=1.5 CJE=411p VJE=.75 MJE=0.37 CJC=93.24p VJC=0.500
+ MJC=0.3300 TF=1.27n TR=230n EG=1.2 XTI=3)



*                (c)  2012 Diodes Inc
*
*   The copyright in these models  and  the designs embodied belong
*   to Diodes Incorporated (" Zetex ").  They  are  supplied
*   free of charge by Zetex for the purpose of research and design
*   and may be used or copied intact  (including this notice)  for
*   that purpose only.  All other rights are reserved.  The models
*   are believed accurate but no condition  or warranty  as to their
*   merchantability or fitness for purpose is given and no liability
*   in respect of any use is accepted by Diodes Incorporated, its distributors
*   or agents.
*
*   Diodes Zetex Semiconductors Ltd, Zetex Technology Park, Chadderton,
*   Oldham, United Kingdom, OL9 9LL
*


*SRC=2DC4617QLP;DI_2DC4617QLP;BJTs NPN; Si;  50.0V  0.100A  200MHz    
.MODEL DI_2DC4617QLP  NPN (IS=1.21f NF=1.00 BF=202 VAF=127
+ IKF=98.0m ISE=5.55f NE=2.00 BR=4.00 NR=1.00
+ VAR=20.0 IKR=0.150 RE=0.575 RB=2.30 RC=0.230
+ XTB=1.5 CJE=15.6p VJE=1.10 MJE=0.500 CJC=6.12p VJC=0.300
+ MJC=0.300 TF=765p TR=126n EG=1.12 )


*DIODES_BC56-16PAWQ_SPICE_MODEL
*DATE=26Jun2023
*VERSION=1.0
*ORIGIN=DT
*SIMULATOR=SIMETRIX
*
.MODEL BC56-16PAWQ NPN (IS=35.7f NF=1.00 BF=161 VAF=161
+ IKF=1.65 ISE=1.6p NE=2.00 BR=32.00 NR=1.00 NK=0.79 ISC=67.2p NC=1.56
+ VAR=28.0 IKR=3.00 RE=113.2m RB=0.586 RC=58.6m RCO=0.05
+ XTB=1.5 CJE=175.8p VJE=1.10 MJE=0.500 CJC=191.6p VJC=0.300
+ MJC=0.300 TF=24.4n TR=18.1n EG=1.12
+ TRE1=0.003 TRB1=0.003 TRC1=0.001 GAMMA=50n QUASIMOD=1 )
*
*$
*
******************************************************************************
*                	 (c)  2023 Diodes Inc
*
*   Diodes Incorporated and its affiliated companies and subsidiaries 
*   (collectively, "Diodes") provide these spice models and data 
*   (collectively, the "SM data") "as is" and without any representations
*   or warranties, express or implied, including any warranty of
*   merchantability or fitness for a particular purpose, any warranty 
*   arising from course of dealing or course of performance, or any 
*   warranty that access to or operation of the SM data will be
*   uninterrupted, or that the SM data or any simulation using the SM data
*   will be error free.
*
*   To the maximum extent permitted by law, in no event will Diodes be
*   liable for any indirect, special, incidental, punitive or consequential
*   damages arising out of or in connection with the production or use of
*   SM data, however caused and under whatever cause of action or theory of
*   liability brought (including, without limitation, under any contract,
*   negligence or other tort theory of liability), even if Diodes has been
*   advised of the possibility of such damages, and Diodes' total liability
*   (whether in contract, tort or otherwise) with regard to the SM data
*   will not, in the aggregate, exceed any sums paid by you to Diodes for
*   the SM data
*
*   Diodes Zetex Semiconductors Ltd, Zetex Technology Park, Chadderton,
*   Oldham, United Kingdom, OL9 9LL
******************************************************************************


*SRC=BC807-40;DI_BC807-40;BJTs PNP; Si;  45.0V  0.500A  220MHz   Diodes
Inc. BJTs
.MODEL DI_BC807-40  PNP (IS=50.7f NF=1.00 BF=821 VAF=121
+ IKF=0.273 ISE=10.1p NE=2.00 BR=4.00 NR=1.00
+ VAR=20.0 IKR=0.675 RE=0.213 RB=0.852 RC=85.2m
+ XTB=1.5 CJE=107p VJE=1.10 MJE=0.500 CJC=34.7p VJC=0.300 MJC=0.300 
+ TF=631p TR=108n EG=1.12 )


*SRC=BC817-16;DI_BC817-16;BJTs NPN; Si;  45.0V  0.800A  220MHz   Diodes
Inc. BJTs
.MODEL DI_BC817-16  NPN (IS=4.04n NF=1.00 BF=342 VAF=121
+ IKF=0.273 ISE=6.86n NE=2.00 BR=4.00 NR=1.00
+ VAR=20.0 IKR=0.675 RE=0.227 RB=0.907 RC=90.7m
+ XTB=1.5 CJE=107p VJE=1.10 MJE=0.500 CJC=34.7p VJC=0.300 MJC=0.300 
+ TF=651p TR=111n EG=1.12 )


*SRC=BC817-25;DI_BC817-25;BJTs NPN; Si;  45.0V  0.800A  220MHz   Diodes
Inc. BJTs
.MODEL DI_BC817-25  NPN (IS=4.04n NF=1.00 BF=548 VAF=121
+ IKF=0.273 ISE=4.29n NE=2.00 BR=4.00 NR=1.00
+ VAR=20.0 IKR=0.675 RE=0.227 RB=0.907 RC=90.7m
+ XTB=1.5 CJE=107p VJE=1.10 MJE=0.500 CJC=34.7p VJC=0.300 MJC=0.300 
+ TF=651p TR=109n EG=1.12 )


*SRC=BC817-40;DI_BC817-40;BJTs NPN; Si;  45.0V  0.800A  220MHz   Diodes
Inc. BJTs
.MODEL DI_BC817-40  NPN (IS=4.04n NF=1.00 BF=822 VAF=121
+ IKF=0.273 ISE=2.86n NE=2.00 BR=4.00 NR=1.00
+ VAR=20.0 IKR=0.675 RE=0.227 RB=0.907 RC=90.7m
+ XTB=1.5 CJE=107p VJE=1.10 MJE=0.500 CJC=34.7p VJC=0.300 MJC=0.300 
+ TF=651p TR=108n EG=1.12 )


*SRC=BC846A;DI_BC846A;BJTs NPN; Si;  65.0V  0.100A  300MHz   Diodes Inc
BJTs
.MODEL DI_BC846A  NPN (IS=10.2f NF=1.00 BF=305 VAF=145
+ IKF=53.6m ISE=5.86p NE=2.00 BR=4.00 NR=1.00
+ VAR=24.0 IKR=0.135 RE=0.915 RB=3.66 RC=0.366
+ XTB=1.5 CJE=26.8p VJE=1.10 MJE=0.500 CJC=8.67p VJC=0.300 MJC=0.300 
+ TF=416p TR=50.3n EG=1.12 )


*SRC=BC846AS;DI_BC846AS;BJTs NPN; Si;  65.0V  0.100A  250MHz    Diodes Inc
.MODEL DI_BC846AS  PNP (IS=10.1f NF=1.00 BF=301 VAF=145
+ IKF=54.7m ISE=5.50p NE=2.00 BR=4.00 NR=1.00
+ VAR=24.0 IKR=0.135 RE=0.705 RB=2.82 RC=0.282
+ XTB=1.5 CJE=19.1p VJE=1.10 MJE=0.500 CJC=5.37p VJC=0.300
+ MJC=0.300 TF=564p TR=98.4n EG=1.12


*SRC=BC846B;DI_BC846B;BJTs NPN; Si;  65.0V  0.100A  300MHz   Diodes Inc
BJTs
.MODEL DI_BC846B  NPN (IS=10.2f NF=1.00 BF=650 VAF=145
+ IKF=39.5m ISE=2.93p NE=2.00 BR=4.00 NR=1.00
+ VAR=24.0 IKR=0.105 RE=0.915 RB=3.66 RC=0.366
+ XTB=1.5 CJE=26.8p VJE=1.10 MJE=0.500 CJC=8.67p VJC=0.300 MJC=0.300 
+ TF=385p TR=49.0n EG=1.12 )


*SRC=BC846BW;DI_BC846BW;BJTs NPN; Si;  65.0V  0.100A  300MHz   Diodes Inc
BJTs
.MODEL DI_BC846BW  NPN (IS=10.2f NF=1.00 BF=650 VAF=145
+ IKF=39.5m ISE=2.93p NE=2.00 BR=4.00 NR=1.00
+ VAR=24.0 IKR=0.105 RE=0.915 RB=3.66 RC=0.366
+ XTB=1.5 CJE=26.8p VJE=1.10 MJE=0.500 CJC=8.67p VJC=0.300 MJC=0.300 
+ TF=385p TR=49.0n EG=1.12 )


*SRC=BC847A;DI_BC847A;BJTs NPN; Si;  45.0V  0.100A  300MHz   Diodes Inc
BJTs
.MODEL DI_BC847A  NPN (IS=10.2f NF=1.00 BF=301 VAF=121
+ IKF=60.7m ISE=5.82p NE=2.00 BR=4.00 NR=1.00
+ VAR=24.0 IKR=0.150 RE=0.915 RB=3.66 RC=0.366
+ XTB=1.5 CJE=26.8p VJE=1.10 MJE=0.500 CJC=8.67p VJC=0.300 MJC=0.300 
+ TF=427p TR=50.3n EG=1.12 )


*DIODES_INC_SPICE_MODEL BC847BFAQ
*SIMULATOR=SIMETRIX
*ORIGIN=DZSL_DPG_IM
*DATE=10Jul2013_package updated Jan2019
*VERSION=1.0

.MODEL BC847BFAQ  NPN (IS=6E-15 NF=.99 BF=350 ISE=400E-18 NE=1.15 BR=1.8 NR=.97 NC=1.1 ISC=10E-15 RE=0.15 RB=4 RC=0.2 CJE=9p VJE=.7 MJE=0.3 CJC=3.146p VJC=0.500 MJC=0.2200 VAF=40 IKF=48m VAR=24.0 IKR=90.0m)



*                (c)  2013 Diodes Inc
*
*   The copyright in these models  and  the designs embodied belong
*   to Diodes Incorporated (" Zetex ").  They  are  supplied
*   free of charge by Zetex for the purpose of research and design
*   and may be used or copied intact  (including this notice)  for
*   that purpose only.  All other rights are reserved.  The models
*   are believed accurate but no condition  or warranty  as to their
*   merchantability or fitness for purpose is given and no liability
*   in respect of any use is accepted by Diodes Incorporated, its distributors
*   or agents.
*
*   Diodes Zetex Semiconductors Ltd, Zetex Technology Park, Chadderton,
*   Oldham, United Kingdom, OL9 9LL
*


*SRC=BC847B;DI_BC847B;BJTs NPN; Si;  45.0V  0.100A  300MHz   Diodes, Inc. transistor
.MODEL DI_BC847B  NPN (IS=3.75f NF=1.00 BF=1.61k VAF=121
+ IKF=8.79m ISE=8.38p NE=2.00 BR=4.00 NR=1.00
+ VAR=24.0 IKR=90.0m RE=0.765 RB=3.06 RC=0.306
+ XTB=1.5 CJE=13.3p VJE=1.10 MJE=0.500 CJC=8.67p VJC=0.300
+ MJC=0.300 TF=520p TR=78.9n EG=1.12 )


*SRC=BC847BS;DI_BC847BS;BJTs NPN; Si;  45.0V  0.100A  250MHz   Diodes Inc.
BJTs
.MODEL DI_BC847BS  NPN (IS=9.98f NF=1.00 BF=616 VAF=121
+ IKF=60.7m ISE=2.81p NE=2.00 BR=4.00 NR=1.00
+ VAR=20.0 IKR=0.150 RE=0.815 RB=3.26 RC=0.326
+ XTB=1.5 CJE=13.3p VJE=1.10 MJE=0.500 CJC=4.33p VJC=0.300 MJC=0.300 
+ TF=585p TR=49.1n EG=1.12 )


*DIODES_INC_SPICE_MODEL
*ORIGIN=DZSL_DPG_PH
*SIMULATOR=SIMETRIX
*DATE=13OCT2019
*VERSION=1
*
.MODEL BC847BTQ  NPN 
+ IS=9.98f
+ NF=1.00
+ BF=616
+ VAF=121
+ IKF=60.7m
+ ISE=2.81p
+ NE=2.00
+ BR=4.00
+ NR=1.00
+ VAR=24.0
+ IKR=0.150
+ RE=0.815
+ RB=3.26
+ RC=0.326
+ XTB=1.5
+ CJE=26.8p
+ VJE=1.10
+ MJE=0.500
+ CJC=13.0p
+ VJC=0.300
+ MJC=0.300 
+ TF=423p
+ TR=49.1n
+ EG=1.12

*                (c)  2019 Diodes Inc					
*					
*   The copyright in these models  and  the designs embodied belong					
*   to Diodes Incorporated (" Zetex ").  They  are  supplied					
*   free of charge by Zetex for the purpose of research and design					
*   and may be used or copied intact  (including this notice)  for					
*   that purpose only.  All other rights are reserved.  The models					
*   are believed accurate but no condition  or warranty  as to their					
*   merchantability or fitness for purpose is given and no liability					= intrinsic base-intrinsic emitter voltage
*   in respect of any use is accepted by Diodes Incorporated, its distributors					
*   or agents.					
*					
*   Diodes Zetex Semiconductors Ltd, Zetex Technology Park, Chadderton,					
*   Oldham, United Kingdom, OL9 9LL


*SRC=BC847BVC;DI_BC847BVC;BJTs NPN; Si;  45.0V  0.100A  300MHz   Diodes, Inc. transistor
.MODEL DI_BC847BVC  NPN (IS=3.75f NF=1.00 BF=1.61k VAF=121
+ IKF=8.79m ISE=8.38p NE=2.00 BR=4.00 NR=1.00
+ VAR=24.0 IKR=90.0m RE=0.765 RB=3.06 RC=0.306
+ XTB=1.5 CJE=13.3p VJE=1.10 MJE=0.500 CJC=8.67p VJC=0.300
+ MJC=0.300 TF=520p TR=78.9n EG=1.12 )


*DIODES_INC_SPICE_MODEL BC847BW
*SIMULATOR=SIMETRIX
*ORIGIN=DZSL_DPG_IM
*DATE=10Jul2013_package updated Jan2019
*VERSION=1.0

.MODEL BC847BW  NPN (IS=6E-15 NF=.99 BF=350 ISE=400E-18 NE=1.15 BR=1.8 NR=.97 NC=1.1 ISC=10E-15 RE=0.15 RB=4 RC=0.2 CJE=9p VJE=.7 MJE=0.3 CJC=3.146p VJC=0.500 MJC=0.2200 VAF=40 IKF=48m VAR=24.0 IKR=90.0m)



*                (c)  2013 Diodes Inc
*
*   The copyright in these models  and  the designs embodied belong
*   to Diodes Incorporated (" Zetex ").  They  are  supplied
*   free of charge by Zetex for the purpose of research and design
*   and may be used or copied intact  (including this notice)  for
*   that purpose only.  All other rights are reserved.  The models
*   are believed accurate but no condition  or warranty  as to their
*   merchantability or fitness for purpose is given and no liability
*   in respect of any use is accepted by Diodes Incorporated, its distributors
*   or agents.
*
*   Diodes Zetex Semiconductors Ltd, Zetex Technology Park, Chadderton,
*   Oldham, United Kingdom, OL9 9LL
*


*SRC=BC847C;DI_BC847C;BJTs NPN; Si;  45.0V  0.100A  300MHz   Diodes Inc
BJTs
.MODEL DI_BC847C  NPN (IS=10.3f NF=1.00 BF=1.09k VAF=121
+ IKF=60.7m ISE=1.61p NE=2.00 BR=4.00 NR=1.00
+ VAR=24.0 IKR=0.150 RE=0.965 RB=3.86 RC=0.386
+ XTB=1.5 CJE=26.8p VJE=1.10 MJE=0.500 CJC=8.67p VJC=0.300 MJC=0.300 
+ TF=427p TR=48.6n EG=1.12 )


*SRC=BC847CW;DI_BC847CW;BJTs NPN; Si;  45.0V  0.100A  300MHz   Diodes Inc
BJTs
.MODEL DI_BC847CW  NPN (IS=10.2f NF=1.00 BF=1.09k VAF=121
+ IKF=60.7m ISE=1.60p NE=2.00 BR=4.00 NR=1.00
+ VAR=24.0 IKR=0.150 RE=0.915 RB=3.66 RC=0.366
+ XTB=1.5 CJE=26.8p VJE=1.10 MJE=0.500 CJC=8.67p VJC=0.300 MJC=0.300 
+ TF=427p TR=48.6n EG=1.12 )


* DIODES INCORPORATED AND ITS AFFILIATED COMPANIES AND SUBSIDIARIES (COLLECTIVELY, "DIODES") 
* PROVIDE THESE SPICE MODELS AND DATA (COLLECTIVELY, THE "SM DATA") "AS IS" AND WITHOUT ANY 
* REPRESENTATIONS OR WARRANTIES, EXPRESS OR IMPLIED, INCLUDING ANY WARRANTY OF MERCHANTABILITY 
* OR FITNESS FOR A PARTICULAR PURPOSE, ANY WARRANTY ARISING FROM COURSE OF DEALING OR COURSE OF 
* PERFORMANCE, OR ANY WARRANTY THAT ACCESS TO OR OPERATION OF THE SM DATA WILL BE UNINTERRUPTED, 
* OR THAT THE SM DATA OR ANY SIMULATION USING THE SM DATA WILL BE ERROR FREE. TO THE MAXIMUM 
* EXTENT PERMITTED BY LAW, IN NO EVENT WILL DIODES BE LIABLE FOR ANY DIRECT OR INDIRECT, 
* SPECIAL, INCIDENTAL, PUNITIVE OR CONSEQUENTIAL DAMAGES ARISING OUT OF OR IN CONNECTION WITH 
* THE PRODUCTION OR USE OF SM DATA, HOWEVER CAUSED AND UNDER WHATEVER CAUSE OF ACTION OR THEORY 
* OF LIABILITY BROUGHT (INCLUDING, WITHOUT LIMITATION, UNDER ANY CONTRACT, NEGLIGENCE OR OTHER 
* TORT THEORY OF LIABILITY), EVEN IF DIODES HAS BEEN ADVISED OF THE POSSIBILITY OF SUCH DAMAGES, 
* AND DIODES' TOTAL LIABILITY (WHETHER IN CONTRACT, TORT OR OTHERWISE) WITH REGARD TO THE SM 
* DATA WILL NOT, IN THE AGGREGATE, EXCEED ANY SUMS PAID BY YOU TO DIODES FOR THE SM DATA.

*DIODES_INC_SPICE_MODEL_BC847PNQ
*COMPLEMENTARY PAIR BC847/BC857 BAND B
*DATE=03Apr2024
*SIMULATOR=SIMETRIX
*ORIGIN=DT
*VERSION=1.0


.MODEL BC847PNQ_NPN  NPN (IS=9.98f NF=1.00 BF=616 VAF=121
+ IKF=60.7m ISE=5.81p NE=2.00 BR=4.00 NR=1.00 NC=1.00 NK=0.52 ISC=3.55E-15
+ VAR=24.0 IKR=0.150 RE=0.815 RB=3.26 RC=0.326 RCO=29.8 VO=69
+ XTB=1.5 CJE=26.8p VJE=1.10 MJE=0.500 CJC=13.0p VJC=0.300 MJC=0.300 
+ TF=423p TR=49.1n EG=1.12
+ TRE1=0.001 TRB1=0.003 TRC1=0.003 GAMMA=69.7n QUASIMOD=1)

.MODEL BC847PNQ_PNP  PNP (IS=5.51f NF=1.00 BF=324 VAF=35
+ IKF=178.7m ISE=4.59f NE=2.00 BR=3.00 NR=1.00 NK=0.52 ISC=3.55f
+ VAR=20.0 IKR=90.0m RE=0.765 RB=3.06 RC=0.306 RCO=39 VO=90 NC=1.56
+ XTB=1.5 CJE=26.9p VJE=1.10 MJE=0.500 CJC=8.67p VJC=0.300
+ MJC=0.300 TF=700p TR=121n EG=1.12 
+ TRE1=0.001 TRB1=0.003 TRC1=0.003 GAMMA=21.5n QUASIMOD=1 )



*                (c)  2023 Diodes Inc
*
*   The copyright in these models  and  the designs embodied belong
*   to Diodes Incorporated (" Zetex ").  They  are  supplied
*   free of charge by Zetex for the purpose of research and design
*   and may be used or copied intact  (including this notice)  for
*   that purpose only.  All other rights are reserved.  The models
*   are believed accurate but no condition  or warranty  as to their
*   merchantability or fitness for purpose is given and no liability
*   in respect of any use is accepted by Diodes Incorporated, its distributors
*   or agents.
*
*   Diodes Zetex Semiconductors Ltd, Zetex Technology Park, Chadderton,
*   Oldham, United Kingdom, OL9 9LL


*SRC=BC848C;DI_BC848C;BJTs NPN; Si;  30.0V  0.100A  300MHz   Diodes Inc
BJTs
.MODEL DI_BC848C  NPN (IS=10.2f NF=1.00 BF=1.09k VAF=98.6
+ IKF=60.7m ISE=1.60p NE=2.00 BR=4.00 NR=1.00
+ VAR=20.0 IKR=0.150 RE=0.915 RB=3.66 RC=0.366
+ XTB=1.5 CJE=26.8p VJE=1.10 MJE=0.500 CJC=8.67p VJC=0.300 MJC=0.300 
+ TF=427p TR=48.6n EG=1.12 )


*SRC=BC856A;DI_BC856A;BJTs PNP; Si;  65.0V  0.100A  250MHz   Diodes Inc. BJTs
.MODEL DI_BC856A  PNP (IS=10.2f NF=1.00 BF=342 VAF=145
+ IKF=72.9m ISE=5.59p NE=2.00 BR=4.00 NR=1.00
+ VAR=20.0 IKR=0.180 RE=0.715 RB=2.86 RC=0.286
+ XTB=1.5 CJE=13.3p VJE=1.10 MJE=0.500 CJC=8.67p VJC=0.300
+ MJC=0.300 TF=581p TR=97.8n EG=1.12 )


*SRC=BC856AS;DI_BC856AS;BJTs PNP; Si;  65.0V  0.100A  400MHz    Diodes Inc
.MODEL DI_BC856AS  PNP (IS=10.2f NF=1.00 BF=342 VAF=145
+ IKF=60.7m ISE=5.11p NE=2.00 BR=4.00 NR=1.00
+ VAR=20.0 IKR=0.150 RE=0.735 RB=2.94 RC=0.294
+ XTB=1.5 CJE=21.1p VJE=1.10 MJE=0.500 CJC=7.67p VJC=0.300
+ MJC=0.300 TF=314p TR=61.2n EG=1.12 )


*DIODES_INC_SPICE_MODEL BC856B
*SIMULATOR=SIMETRIX
*ORIGIN=DZSL_DPG_SU
*DATE=21May2012
*VERSION=1

.MODEL BC856B PNP IS=15E-15 NF=1 BF=360 ISE=100E-18 NE=1.05 
+ BR=2 ISC=1.8E-14 NC=1.05 NR=1 CJC=8.26E-12 MJC=0.33 VJC=0.48
+ CJE=14.6E-12 MJE=0.37 VJE=0.75 RC=.313 RE=.782 RB=3.5 VAF=20 IKF=130m XTB=1.4 NK=.7 QUASIMOD=1 RCO=1 EG=1.11

.SIMULATOR DEFAULT


*SRC=BC857B;DI_BC857B;BJTs PNP; Si;  45.0V  0.100A  200MHz   Diodes, Inc. transistor
.MODEL DI_BC857B  PNP (IS=5.51f NF=1.00 BF=424 VAF=121
+ IKF=36.4m ISE=2.35p NE=2.00 BR=4.00 NR=1.00
+ VAR=20.0 IKR=90.0m RE=0.765 RB=3.06 RC=0.306
+ XTB=1.5 CJE=26.9p VJE=1.10 MJE=0.500 CJC=8.67p VJC=0.300
+ MJC=0.300 TF=700p TR=121n EG=1.12 )


*SRC=BC857BS;DI_BC857BS;BJTs PNP; Si;  45.0V  0.100A  250MHz   Diodes Inc.
BJTs - Single device of dual
.MODEL DI_BC857BS  PNP (IS=10.2f NF=1.00 BF=650 VAF=121
+ IKF=42.5m ISE=2.25p NE=2.00 BR=4.00 NR=1.00
+ VAR=20.0 IKR=0.105 RE=0.715 RB=2.86 RC=0.286
+ XTB=1.5 CJE=13.3p VJE=1.10 MJE=0.500 CJC=7.80p VJC=0.300 MJC=0.300 
+ TF=586p TR=95.9n EG=1.12 )


*SRC=BC857C;DI_BC857C;BJTs PNP; Si;  45.0V  0.100A  250MHz   Diodes Inc. BJTs
.MODEL DI_BC857C  PNP (IS=10.2f NF=1.00 BF=1.09k VAF=121
+ IKF=36.4m ISE=1.24p NE=2.00 BR=4.00 NR=1.00
+ VAR=20.0 IKR=90.0m RE=0.715 RB=2.86 RC=0.286
+ XTB=1.5 CJE=13.3p VJE=1.10 MJE=0.500 CJC=7.80p VJC=0.300
+ MJC=0.300 TF=587p TR=95.0n EG=1.12 )


*ZETEX BCP5610 Spice Model v2.0 Last Revised 24/2/05
    *
    .MODEL BCP5610 NPN IS =6E-14 NF =0.99 BF =250 IKF=0.9
    +NK=0.7 VAF=270 ISE=1E-14 NE =1.2 NR =0.98 BR =30 IKR=0.5
    +VAR=27 ISC=1.2e-13 NC =1.2 RB =0.2 RE =0.08 RC =0.08 RCO=5
    +GAMMA=5E-9 CJC=15.9E-12 MJC=0.4 VJC=0.51 CJE=108E-12 
    +MJE=0.35 VJE=0.7 TF =0.8E-9 TR =55e-9 XTB=1.4 QUASIMOD=1
    *
    *$
    *


*ZETEX BCP5616 Spice Model v2.0 Last Revised 24/2/05
    *
    .MODEL BCP5616 NPN IS =6E-14 NF =0.99 BF =250 IKF=0.9
    +NK=0.7 VAF=270 ISE=1E-14 NE =1.2 NR =0.98 BR =30 IKR=0.5
    +VAR=27 ISC=1.2e-13 NC =1.2 RB =0.2 RE =0.08 RC =0.08 RCO=5
    +GAMMA=5E-9 CJC=15.9E-12 MJC=0.4 VJC=0.51 CJE=108E-12 
    +MJE=0.35 VJE=0.7 TF =0.8E-9 TR =55e-9 XTB=1.4 QUASIMOD=1
    *
    *$
    *


*ZETEX BCW68H Spice Model v1.0 Last Revised 8/8/05
    *
    .MODEL BCW68H PNP IS =3.0572E-13 NF =1.0103 BF =450 IKF=0.93 VAF=20
    +ISE=1.5E-14 NE =1.52 NR =1.007 BR =160 IKR=0.08 VAR=33 
    +ISC=3.8736E-14 NC =1.0893 RB =0.112 RE =0.144 RC =0.156 
    +CJC=42E-12 MJC=0.4449 VJC=0.3131 CJE=91E-12 
    +TF =0.51E-9 TR =3.6E-9
    *
    *$
    *


*
*DIODES_INC_SPICE_MODEL
*ORIGIN=DZSL_DPG_PH
*SIMULATOR=PSPICE
*DATE=14Nov2019
*VERSION=1
*
.MODEL BCX5216 PNP 
+	IS=2E-13 
+	NF=1 
+	BF=300 
+	IKF=0.8 
+ 	VAF=44 
+	ISE=1E-13 
+	NE=1.4 
+	RCO=4.5 
+	GAMMA=5E-9 
+ 	NR=1 
+	BR=20 
+	IKR=0.2 
+	VAR=10 
+	ISC=2e-13 
+	NC=1.25 
+ 	RB=0.15 
+	RE=0.15 
+	RC=0.2 
+	QUASIMOD=1
+ 	CJC=36E-12 
+	MJC=0.45 
+	VJC=0.75 
+	CJE=110E-12 
+ 	TF=0.8E-9 
+	TR=70e-9 
+	XTB=1.4
.ends

*
*                (c)  2019 Diodes Inc
*
*   The copyright in these models  and  the designs embodied belong
*   to Diodes Incorporated (" Zetex ").  They  are  supplied
*   free of charge by Zetex for the purpose of research and design
*   and may be used or copied intact  (including this notice)  for
*   that purpose only.  All other rights are reserved.  The models
*   are believed accurate but no condition  or warranty  as to their
*   merchantability or fitness for purpose is given and no liability
*   in respect of any use is accepted by Diodes Incorporated, its distributors
*   or agents.
*
*   Diodes Zetex Semiconductors Ltd, Zetex Technology Park, Chadderton,
*   Oldham, United Kingdom, OL9 9LL


*
*DIODES_INC_SPICE_MODEL
*ORIGIN=DZSL_DPG_GM
*SIMULATOR=PSPICE
*DATE=08FEB2011
*VERSION=1
*
.MODEL BCX5316 PNP IS=2E-13 NF=1 BF=300 IKF=0.8 
+ VAF=44 ISE=1E-13 NE=1.4 RCO=4.5 GAMMA=5E-9 
+ NR=1 BR=20 IKR=0.2 VAR=10 ISC=2e-13 NC=1.25 
+ RB=0.15 RE=0.15 RC=0.2 QUASIMOD=1
+ CJC=36E-12 MJC=0.45 VJC=0.75 CJE=110E-12 
+ TF=0.8E-9 TR=70e-9 XTB=1.4
*
*$


*ZETEX BCX5616 Spice Model v2.0 Last Revised 24/2/05
    *
    .MODEL BCX5616 NPN IS =6E-14 NF =0.99 BF =250 IKF=0.9
    +NK=0.7 VAF=270 ISE=1E-14 NE =1.2 NR =0.98 BR =30 IKR=0.5
    +VAR=27 ISC=1.2e-13 NC =1.2 RB =0.2 RE =0.08 RC =0.08 RCO=5
    +GAMMA=5E-9 CJC=15.9E-12 MJC=0.4 VJC=0.51 CJE=108E-12 
    +MJE=0.35 VJE=0.7 TF =0.8E-9 TR =55e-9 XTB=1.4 QUASIMOD=1
    *
    *$
    *


*ZETEX BCX6825Q Spice Model v1.0 Last Revised 11/11/04
    *
    .MODEL BCX6825Q NPN IS =1.04E-13  BF =195 IKF =1.9 VAF =160 
    +              ISE=1.83E-14 NE =1.35 NR =1.00 BR =140 IKR=0.5 
    +              VAR=30 ISC=6.00E-12 NC =1.5 RB =0.3 RE =0.065
    +              RC =0.11 CJC=25.37E-12 MJC=0.3281 VJC=0.464 
    +              CJE=122E-12 MJE=0.3412 VJE=0.7631 TF =0.86E-9 
    +              TR =12.5E-9
    *
    *$
    *


*
*DIODES_INC_SPICE_MODEL
*ORIGIN=DZSL_DPG_GM
*SIMULATOR=PSPICE
*DATE=08FEB2011
*VERSION=1
*
.MODEL BSR33 PNP IS=2E-13 NF=1 BF=300 IKF=0.8 
+ VAF=44 ISE=1E-13 NE=1.4 RCO=4.5 GAMMA=5E-9 
+ NR=1 BR=20 IKR=0.2 VAR=10 ISC=2e-13 NC=1.25 
+ RB=0.15 RE=0.15 RC=0.2 QUASIMOD=1
+ CJC=36E-12 MJC=0.45 VJC=0.75 CJE=110E-12 
+ TF=0.8E-9 TR=70e-9 XTB=1.4
*
*$


*ZETEX BSR43 Spice Model v2.0 Last Revised 24/2/05
    *
    .MODEL BSR43 NPN IS =6E-14 NF =0.99 BF =250 IKF=0.9
    +NK=0.7 VAF=270 ISE=1E-14 NE =1.2 NR =0.98 BR =30 IKR=0.5
    +VAR=27 ISC=1.2e-13 NC =1.2 RB =0.2 RE =0.08 RC =0.08 RCO=5
    +GAMMA=5E-9 CJC=15.9E-12 MJC=0.4 VJC=0.51 CJE=108E-12 
    +MJE=0.35 VJE=0.7 TF =0.8E-9 TR =55e-9 XTB=1.4 QUASIMOD=1
    *
    *$
    *


*SRC=DMMT3904W;DI_DMMT3904W;BJTs NPN; Si;  40.0V  0.200A  347MHz   Diodes
*Inc. Matched Transistor
.MODEL DI_DMMT3904W  NPN (IS=20.3f NF=1.00 BF=274 VAF=114
+ IKF=36.4m ISE=6.99p NE=2.00 BR=4.00 NR=1.00
+ VAR=24.0 IKR=90.0m RE=0.657 RB=2.63 RC=0.263
+ XTB=1.5 CJE=8.29p VJE=1.10 MJE=0.500 CJC=7.10p VJC=0.300
+ MJC=0.300 TF=426p TR=71.3n EG=1.12 )


*****************************************************************************************************************************************
*SRC=DMMT3906;DI_DMMT3906;BJTs PNP; Si;  40.0V  0.200A  257MHz   Diodes Inc. Matched BJTs - Single device of dual
.MODEL DI_DMMT3906  PNP (IS=20.3f NF=1.00 BF=437 VAF=114
+ IKF=44.6m ISE=6.81p NE=2.00 BR=4.00 NR=1.00
+ VAR=20.0 IKR=0.120 RE=1.16 RB=4.63 RC=0.463
+ XTB=1.5 CJE=23.5p VJE=1.10 MJE=0.500 CJC=10.7p VJC=0.300
+ MJC=0.300 TF=504p TR=94.3n EG=1.12 )
*****************************************************************************************************************************************


*SRC=DMMT3906W;DI_DMMT3906W;BJTs PNP; Si;  40.0V  0.200A  257MHz   Diodes, Inc. PNP 
.MODEL DI_DMMT3906W  PNP (IS=20.3f NF=1.00 BF=274 VAF=114 
+ IKF=36.4m ISE=6.99p NE=2.00 BR=4.00 NR=1.00 
+ VAR=20.0 IKR=90.0m RE=1.01 RB=4.03 RC=0.403 
+ XTB=1.5 CJE=12.1p VJE=1.10 MJE=0.500 CJC=10.7p VJC=0.300 
+ MJC=0.300 TF=531p TR=85.6n EG=1.12 )


*DIODES_INC_SPICE_MODEL
*ORIGIN=DZSL_DPG_SU
*SIMULATOR=PSPICE
*DATE=14/11/2013
*VERSION=1


.MODEL DSS3540M PNP IS=20e-14 NF=1 ISE=5e-15 NE=1.3 BF=350
+ VAF=26 IKF=1 ISC=9e-15 NC=1.03 BR=15 NR=1 VAR=5.7 IKR=0.6 RE=0.067
+ RB=0.33 RC=0.012 CJE=36.99e-12 VJE=0.75 MJE=0.41 CJC=13.96e-12 VJC=0.5
+ MJC=0.33 TF=4.5e-10 TR=5.6e-9 QUASIMOD=1 RCO=0.66 GAMMA=1.3e-9 NK=.71
+ XTB=1.5 TRE1=0.004 TRB1=0.003 TRC1=0.004



*                (c)  2013 Diodes Inc
*
*   The copyright in these models  and  the designs embodied belong
*   to Diodes Incorporated (" Zetex ").  They  are  supplied
*   free of charge by Zetex for the purpose of research and design
*   and may be used or copied intact  (including this notice)  for
*   that purpose only.  All other rights are reserved.  The models
*   are believed accurate but no condition  or warranty  as to their
*   merchantability or fitness for purpose is given and no liability
*   in respect of any use is accepted by Diodes Incorporated, its distributors
*   or agents.
*
*   Diodes Zetex Semiconductors Ltd, Zetex Technology Park, Chadderton,
*   Oldham, United Kingdom, OL9 9LL
*


*

*DIODES_INC_SPICE_MODEL

*ORIGIN=DZSL_DPG_SU

*SIMULATOR=PSPICE

*DATE=10-Dec-2015

*VERSION=1

*



.MODEL DSS4160FDB NPN IS=6e-13 NF=1 ISE=30e-15 NE=1.35 BF=400

+ VAF=28 IKF=8.5 ISC=2e-13 NC=1.2 BR=15 NR=1 VAR=5.7 IKR=0.6 RE=0.029

+ RB=0.33 RC=0.01 CJE=160e-12 VJE=0.55 MJE=0.36 CJC=30e-12 VJC=0.5

+ MJC=0.35 TF=1.5e-9 TR=48e-9  QUASIMOD=1 RCO=.6 GAMMA=1.3e-9 NK=.7

+ XTB=1.4 TRE1=0.004 TRB1=0.003 TRC1=0.004





*
*                (c)  2015 Diodes Inc
*
*   The copyright in these models  and  the designs embodied belong
*   to Diodes Incorporated (" Zetex ").  They  are  supplied
*   free of charge by Zetex for the purpose of research and design
*   and may be used or copied intact  (including this notice)  for
*   that purpose only.  All other rights are reserved.  The models
*   are believed accurate but no condition  or warranty  as to their
*   merchantability or fitness for purpose is given and no liability
*   in respect of any use is accepted by Diodes Incorporated, its distributors
*   or agents.
*
*   Diodes Zetex Semiconductors Ltd, Zetex Technology Park, Chadderton,
*   Oldham, United Kingdom, OL9 9LL
*


*
*DIODES_INC_SPICE_MODEL
*ORIGIN=DZSL_DPG_SU
*SIMULATOR=PSPICE
*DATE=10-Dec-2013
*VERSION=1
*

.MODEL DSS4160T NPN IS=6e-13 NF=1 ISE=30e-15 NE=1.35 BF=400
+ VAF=28 IKF=8.5 ISC=2e-13 NC=1.2 BR=15 NR=1 VAR=5.7 IKR=0.6 RE=0.029
+ RB=0.33 RC=0.01 CJE=160e-12 VJE=0.55 MJE=0.36 CJC=30e-12 VJC=0.5
+ MJC=0.35 TF=1.5e-9 TR=48e-9  QUASIMOD=1 RCO=.6 GAMMA=1.3e-9 NK=.7
+ XTB=1.4 TRE1=0.004 TRB1=0.003 TRC1=0.004


*
*                (c)  2013 Diodes Inc
*
*   The copyright in these models  and  the designs embodied belong
*   to Diodes Incorporated (" Zetex ").  They  are  supplied
*   free of charge by Zetex for the purpose of research and design
*   and may be used or copied intact  (including this notice)  for
*   that purpose only.  All other rights are reserved.  The models
*   are believed accurate but no condition  or warranty  as to their
*   merchantability or fitness for purpose is given and no liability
*   in respect of any use is accepted by Diodes Incorporated, its distributors
*   or agents.
*
*   Diodes Zetex Semiconductors Ltd, Zetex Technology Park, Chadderton,
*   Oldham, United Kingdom, OL9 9LL
*


*DIODES_INC_DSS4310FJAWQ_SPICE_MODEL
*DATE=08Jan2025
*VERSION=1.0
*ORIGIN=DZSL_BBU_DT
*SIMULATOR=SIMETRIX
*
*SRC=DSS4310FJAWQ;DSS4310FJAWQ;BJTs NPN;Si;12.0V  3.00A  80.0MHz   
.MODEL DSS4310FJAWQ  NPN (IS=405f NF=1.00 BF=591 VAF=62.4
+ IKF=13.80 ISE=289f NE=2.00 BR=252.00 NR=1.00 NK=0.49 NC=1.55 ISC=143f
+ VAR=32.0 IKR=15.0 RE=17.50m RB=22.0m RC=2.20m RCO=0.15 VO=1.2
+ XTB=1.2 XTI=4 CJE=644p VJE=1.10 MJE=0.500 CJC=462p VJC=0.300
+ MJC=0.300 TF=1.52n TR=1.1n EG=1.12
+ TRE1=0.002 TRB1=0.003 TRC1=0.001 GAMMA=0.7n QUASIMOD=1 )
*
*$
*
******************************************************************************
*                	 (c)  2023 Diodes Inc
*
*   Diodes Incorporated and its affiliated companies and subsidiaries 
*   (collectively, "Diodes") provide these spice models and data 
*   (collectively, the "SM data") "as is" and without any representations
*   or warranties, express or implied, including any warranty of
*   merchantability or fitness for a particular purpose, any warranty 
*   arising from course of dealing or course of performance, or any 
*   warranty that access to or operation of the SM data will be
*   uninterrupted, or that the SM data or any simulation using the SM data
*   will be error free.
*
*   To the maximum extent permitted by law, in no event will Diodes be
*   liable for any indirect, special, incidental, punitive or consequential
*   damages arising out of or in connection with the production or use of
*   SM data, however caused and under whatever cause of action or theory of