.MODEL BC327_25 PNP(IS=1.08E-13 NF=0.99 ISE=2.713E-14 NE=1.4 BF=385.7 IKF=0.3603 VAF=31.29 NR=0.9849 ISC=5.062E-13 NC=1.295 BR=20.57 IKR=0.054 VAR=11.62 RB=1 IRB=1.00E-06 RBM=0.5 RE=0.1415 RC=0.2623 XTB=0 EG=1.11 XTI=3 CJE=5.114E-11 VJE=0.8911 MJE=0.4417 TF=7.359E-10 XTF=1.859 VTF=3.813 ITF=0.4393 PTF=0 CJC=2.656E-11 VJC=0.62 MJC=0.4836 XCJC=0.459 TR=5.00E-08 CJS=0 VJS=0.75 MJS=0.333 FC=0.99 Vceo=45 Icrating=500m mfg=Philips)
.MODEL BC327_40 PNP(IS=2.077E-13 NF=1.005 ISE=1.411E-14 NE=1.3 BF=449.8 IKF=0.36 VAF=29 NR=1.002 ISC=2.963E-13 NC=1.25 BR=20.92 IKR=0.104 VAR=10 RB=40 IRB=1.00E-05 RBM=5.3 RE=0.14 RC=0.32 XTB=0 EG=1.11 XTI=3 CJE=5E-11 VJE=0.9296 MJE=0.456 TF=7E-10 XTF=3.25 VTF=2.5 ITF=0.79 PTF=80 CJC=2.675E-11 VJC=0.8956 MJC=0.4638 XCJC=0.459 TR=3.50E-08 CJS=0 VJS=0.75 MJS=0.333 FC=0.935 Vceo=45 Icrating=500m mfg=Philips)
.MODEL BD244A PNP(IS=1.09078p ISE=2.51189p ISC=9.14539E-13 XTI=3 BF=240.3 BR=20.265 IKF=1.1124198 IKR=0.524807 XTB=1.3913 VAF=153.184 VAR=36.6808 VJE=0.5862666 VJC=0.4538756 RE=1.0135 RC=1.0135 RB=49.2185 RBM=0.727994 IRB=5.84552E-5 CJE=4.484304E-10 CJC=2.066303E-10 XCJC=0.6935 FC=0.5 NF=1.00172 NR=0.9935 NE=1.5 NC=1.21111 MJE=0.3243386 MJC=0.3323408 EG=1.2342 VCEO=70 ICRATING=6 MFG=PHILIPS)
