Version 4.1
SHEET 1 1536 680
WIRE 1008 -256 1008 -304
WIRE 1008 -160 1008 -192
WIRE 880 -80 880 -128
WIRE 544 -64 544 -112
WIRE 848 -64 800 -64
WIRE 1008 -48 1008 -80
WIRE 1008 -48 912 -48
WIRE 848 -32 816 -32
WIRE 416 0 416 -64
WIRE 880 32 880 -16
WIRE 816 80 816 -32
WIRE 1008 80 1008 -48
WIRE 1008 80 816 80
WIRE 688 96 688 48
WIRE -624 112 -720 112
WIRE -400 112 -544 112
WIRE -256 112 -400 112
WIRE -112 112 -176 112
WIRE 48 112 -32 112
WIRE 128 112 48 112
WIRE 416 112 416 80
WIRE 416 112 320 112
WIRE 656 112 416 112
WIRE 800 128 800 -64
WIRE 800 128 720 128
WIRE 928 128 800 128
WIRE -720 144 -720 112
WIRE 544 144 544 16
WIRE 656 144 544 144
WIRE -400 160 -400 112
WIRE -416 176 -496 176
WIRE 544 192 544 144
WIRE -416 208 -448 208
WIRE -256 208 -288 208
WIRE -112 208 -176 208
WIRE 80 208 -32 208
WIRE 128 208 80 208
WIRE 320 208 304 208
WIRE 352 208 320 208
WIRE 688 208 688 160
WIRE 352 240 352 208
WIRE -448 256 -448 208
WIRE -448 256 -496 256
WIRE -720 288 -720 224
WIRE -400 288 -400 224
WIRE -400 288 -720 288
WIRE -288 288 -288 208
WIRE -288 288 -400 288
WIRE 544 288 544 256
WIRE 80 304 80 208
WIRE 128 304 80 304
WIRE 416 304 416 112
WIRE 416 304 320 304
WIRE -720 320 -720 288
WIRE 896 352 896 304
WIRE 48 400 48 112
WIRE 128 400 48 400
WIRE 320 400 304 400
WIRE 352 400 320 400
WIRE 352 448 352 400
WIRE 896 480 896 432
FLAG 896 480 0
FLAG 352 448 0
FLAG 896 304 VCC
FLAG 416 -64 VCC
FLAG 352 240 0
FLAG 544 288 0
FLAG 544 -112 VCC
FLAG 928 128 OUT
IOPIN 928 128 Out
FLAG 688 48 VCC
FLAG 688 208 0
FLAG 880 -128 VCC
FLAG 880 32 0
FLAG 1008 -304 VCC
FLAG -720 320 0
SYMBOL Optos\\PC817B 224 160 R0
SYMATTR InstName U1
SYMBOL res 400 -16 R0
SYMATTR InstName R1
SYMATTR Value 100k
SYMBOL voltage -720 128 R0
WINDOW 123 0 0 Left 0
WINDOW 39 0 0 Left 0
WINDOW 0 70 39 Right 2
WINDOW 3 -50 -61 VRight 2
SYMATTR InstName V1
SYMATTR Value SINE(0 310 50 0 0)
SYMBOL res -160 96 R90
WINDOW 0 -38 66 VBottom 2
WINDOW 3 -38 56 VTop 2
SYMATTR InstName R2
SYMATTR Value 33k
SYMBOL voltage 896 336 R0
WINDOW 123 0 0 Left 0
WINDOW 39 0 0 Left 0
WINDOW 0 45 40 Left 2
WINDOW 3 48 68 Left 2
SYMATTR InstName V2
SYMATTR Value 5
SYMBOL res -160 192 R90
WINDOW 0 62 66 VBottom 2
WINDOW 3 58 57 VTop 2
SYMATTR InstName R3
SYMATTR Value 33k
SYMBOL Optos\\PC817B 224 352 R0
SYMATTR InstName U2
SYMBOL diode 528 192 R0
WINDOW 0 43 22 Left 2
WINDOW 3 43 47 Left 2
SYMATTR InstName D1
SYMATTR Value 1N4148
SYMBOL res 528 -80 R0
SYMATTR InstName R4
SYMATTR Value 47k
SYMBOL res 1024 -64 R180
WINDOW 0 -41 69 Left 2
WINDOW 3 -56 43 Left 2
SYMATTR InstName R6
SYMATTR Value 1.8k
SYMBOL LED 992 -256 R0
WINDOW 0 -49 24 Left 2
WINDOW 3 -33 52 Left 2
SYMATTR InstName LED
SYMBOL SpecialFunctions\\varistor -384 256 M180
WINDOW 0 10 93 Left 2
SYMATTR InstName A1
SYMBOL voltage -496 160 R0
WINDOW 0 -74 42 Left 2
WINDOW 3 -85 74 Left 2
WINDOW 123 0 0 Left 0
WINDOW 39 0 0 Left 0
SYMATTR InstName V3
SYMATTR Value 220
SYMBOL res -16 96 R90
WINDOW 0 -38 66 VBottom 2
WINDOW 3 -38 56 VTop 2
SYMATTR InstName R5
SYMATTR Value 33k
SYMBOL res -16 192 R90
WINDOW 0 62 66 VBottom 2
WINDOW 3 58 57 VTop 2
SYMATTR InstName R7
SYMATTR Value 33k
SYMBOL res -528 96 R90
WINDOW 0 -38 66 VBottom 2
WINDOW 3 -38 56 VTop 2
SYMATTR InstName Fuse
SYMATTR Value 0
SYMBOL MyLib\\OpAmp\\LM358 880 -112 R0
WINDOW 38 26 88 Left 2
SYMATTR InstName U3
SYMBOL MyLib\\OpAmp\\LM358 688 64 R0
WINDOW 38 24 89 Left 2
SYMATTR InstName U4
TEXT 608 408 Left 2 !.tran 40m
TEXT -376 192 Left 2 ;MOV\n470V
