Version 4.1
SHEET 1 1536 680
WIRE 928 -256 928 -304
WIRE 928 -160 928 -192
WIRE 800 -80 800 -128
WIRE 464 -64 464 -112
WIRE 768 -64 720 -64
WIRE 928 -48 928 -80
WIRE 928 -48 832 -48
WIRE 768 -32 736 -32
WIRE 352 0 352 -64
WIRE 800 32 800 -16
WIRE 736 80 736 -32
WIRE 928 80 928 -48
WIRE 928 80 736 80
WIRE 608 96 608 48
WIRE -608 112 -608 80
WIRE -512 112 -608 112
WIRE -288 112 -432 112
WIRE -144 112 -288 112
WIRE 0 112 -64 112
WIRE 160 112 80 112
WIRE 352 112 352 80
WIRE 352 112 288 112
WIRE 576 112 352 112
WIRE 720 128 720 -64
WIRE 720 128 640 128
WIRE 848 128 720 128
WIRE -608 144 -608 112
WIRE 464 144 464 16
WIRE 576 144 464 144
WIRE -288 160 -288 112
WIRE -304 176 -384 176
WIRE -144 176 -176 176
WIRE 0 176 -64 176
WIRE 160 176 80 176
WIRE 352 176 288 176
WIRE 464 192 464 144
WIRE -304 208 -336 208
WIRE 608 208 608 160
WIRE 352 240 352 176
WIRE -336 256 -336 208
WIRE -336 256 -384 256
WIRE -608 288 -608 224
WIRE -288 288 -288 224
WIRE -288 288 -608 288
WIRE -176 288 -176 176
WIRE -176 288 -288 288
WIRE 464 288 464 256
WIRE -608 320 -608 288
WIRE 816 352 816 304
WIRE 816 480 816 432
FLAG 816 480 0
FLAG 816 304 VCC
FLAG 352 -64 VCC
FLAG 352 240 0
FLAG 464 288 0
FLAG 464 -112 VCC
FLAG 848 128 OUT
IOPIN 848 128 Out
FLAG 608 48 VCC
FLAG 608 208 0
FLAG 800 -128 VCC
FLAG 800 32 0
FLAG 928 -304 VCC
FLAG -608 320 0
FLAG -608 80 LI
SYMBOL res 336 -16 R0
SYMATTR InstName R1
SYMATTR Value 100k
SYMBOL voltage -608 128 R0
WINDOW 123 0 0 Left 0
WINDOW 39 0 0 Left 0
WINDOW 0 70 39 Right 2
WINDOW 3 -50 -61 VRight 2
SYMATTR InstName V1
SYMATTR Value SINE(0 310 50 0 0)
SYMBOL res -48 96 R90
WINDOW 0 -38 66 VBottom 2
WINDOW 3 -38 56 VTop 2
SYMATTR InstName R2
SYMATTR Value 33k
SYMBOL voltage 816 336 R0
WINDOW 123 0 0 Left 0
WINDOW 39 0 0 Left 0
WINDOW 0 45 40 Left 2
WINDOW 3 48 68 Left 2
SYMATTR InstName V2
SYMATTR Value 5
SYMBOL res -48 160 R90
WINDOW 0 62 66 VBottom 2
WINDOW 3 58 57 VTop 2
SYMATTR InstName R3
SYMATTR Value 33k
SYMBOL diode 448 192 R0
WINDOW 0 43 22 Left 2
WINDOW 3 43 47 Left 2
SYMATTR InstName D1
SYMATTR Value 1N4148
SYMBOL res 448 -80 R0
SYMATTR InstName R4
SYMATTR Value 47k
SYMBOL res 944 -64 R180
WINDOW 0 -41 69 Left 2
WINDOW 3 -56 43 Left 2
SYMATTR InstName R6
SYMATTR Value 1.8k
SYMBOL LED 912 -256 R0
WINDOW 0 -49 24 Left 2
WINDOW 3 -33 52 Left 2
SYMATTR InstName LED
SYMBOL SpecialFunctions\\varistor -272 256 M180
WINDOW 0 10 93 Left 2
SYMATTR InstName A1
SYMBOL voltage -384 160 R0
WINDOW 0 -74 42 Left 2
WINDOW 3 -85 74 Left 2
WINDOW 123 0 0 Left 0
WINDOW 39 0 0 Left 0
SYMATTR InstName V3
SYMATTR Value 220
SYMBOL res 96 96 R90
WINDOW 0 -38 66 VBottom 2
WINDOW 3 -38 56 VTop 2
SYMATTR InstName R5
SYMATTR Value 33k
SYMBOL res 96 160 R90
WINDOW 0 62 66 VBottom 2
WINDOW 3 58 57 VTop 2
SYMATTR InstName R7
SYMATTR Value 33k
SYMBOL res -416 96 R90
WINDOW 0 -38 66 VBottom 2
WINDOW 3 -38 56 VTop 2
SYMATTR InstName Fuse
SYMATTR Value 0
SYMBOL Contrib\\Wurth\\Optoelectronics\\Optocoupler\\WL-OCPT\\WL-OCPT_Series_354 224 144 R0
SYMATTR InstName Q1
SYMBOL MyLib\\OpAmp\\LM358 608 64 R0
WINDOW 38 27 88 Left 2
SYMATTR InstName U1
SYMBOL MyLib\\OpAmp\\LM358 800 -112 R0
WINDOW 38 26 87 Left 2
SYMATTR InstName U2
TEXT 624 344 Left 2 !.tran 40m
TEXT -264 192 Left 2 ;MOV\n470V
TEXT 192 224 Left 2 ;LTV814
