Version 4.1
SHEET 1 1536 680
WIRE 208 -160 208 -208
WIRE 688 -144 688 -192
WIRE 560 -48 560 -112
WIRE 688 -48 688 -80
WIRE 208 -32 208 -80
WIRE 352 0 352 -64
WIRE 560 80 560 32
WIRE 688 80 688 32
WIRE 688 80 560 80
WIRE 800 80 688 80
WIRE -608 112 -608 80
WIRE -512 112 -608 112
WIRE -288 112 -432 112
WIRE -144 112 -288 112
WIRE 0 112 -64 112
WIRE 160 112 80 112
WIRE 352 112 352 80
WIRE 352 112 288 112
WIRE 560 128 560 80
WIRE -608 144 -608 112
WIRE -288 160 -288 112
WIRE -304 176 -384 176
WIRE -144 176 -176 176
WIRE 0 176 -64 176
WIRE 160 176 80 176
WIRE 432 176 288 176
WIRE 496 176 432 176
WIRE -304 208 -336 208
WIRE 432 208 432 176
WIRE -336 256 -336 208
WIRE -336 256 -384 256
WIRE 560 272 560 224
WIRE -608 288 -608 224
WIRE -288 288 -288 224
WIRE -288 288 -608 288
WIRE -176 288 -176 176
WIRE -176 288 -288 288
WIRE -608 320 -608 288
WIRE 432 336 432 288
FLAG 208 -32 0
FLAG 208 -208 VCC
FLAG 352 -64 VCC
FLAG 688 -192 VCC
FLAG -608 320 0
FLAG -608 80 LI
FLAG 560 272 0
FLAG 560 -112 VCC
FLAG 432 336 0
FLAG 800 80 OUT
IOPIN 800 80 Out
SYMBOL res 336 -16 R0
SYMATTR InstName R1
SYMATTR Value 47
SYMBOL voltage -608 128 R0
WINDOW 123 0 0 Left 0
WINDOW 39 0 0 Left 0
WINDOW 0 70 39 Right 2
WINDOW 3 -50 -61 VRight 2
SYMATTR InstName V1
SYMATTR Value SINE(0 310 50 20m 0 0 5)
SYMBOL res -48 96 R90
WINDOW 0 -38 66 VBottom 2
WINDOW 3 -38 56 VTop 2
SYMATTR InstName R2
SYMATTR Value 33k
SYMBOL voltage 208 -176 R0
WINDOW 123 0 0 Left 0
WINDOW 39 0 0 Left 0
WINDOW 0 45 40 Left 2
WINDOW 3 48 68 Left 2
SYMATTR InstName V2
SYMATTR Value 3.3
SYMBOL res -48 160 R90
WINDOW 0 62 66 VBottom 2
WINDOW 3 58 57 VTop 2
SYMATTR InstName R3
SYMATTR Value 33k
SYMBOL res 704 48 R180
WINDOW 0 -41 69 Left 2
WINDOW 3 -56 43 Left 2
SYMATTR InstName R6
SYMATTR Value 1k
SYMBOL LED 672 -144 R0
WINDOW 0 -49 24 Left 2
WINDOW 3 -33 52 Left 2
SYMATTR InstName LED
SYMBOL SpecialFunctions\\varistor -272 256 M180
WINDOW 0 10 93 Left 2
SYMATTR InstName A1
SYMBOL voltage -384 160 R0
WINDOW 0 -74 42 Left 2
WINDOW 3 -85 74 Left 2
WINDOW 123 0 0 Left 0
WINDOW 39 0 0 Left 0
SYMATTR InstName V3
SYMATTR Value 220
SYMBOL res 96 96 R90
WINDOW 0 -38 66 VBottom 2
WINDOW 3 -38 56 VTop 2
SYMATTR InstName R5
SYMATTR Value 33k
SYMBOL res 96 160 R90
WINDOW 0 62 66 VBottom 2
WINDOW 3 58 57 VTop 2
SYMATTR InstName R7
SYMATTR Value 33k
SYMBOL res -416 96 R90
WINDOW 0 -38 66 VBottom 2
WINDOW 3 -38 56 VTop 2
SYMATTR InstName Fuse
SYMATTR Value 0
SYMBOL Contrib\\Wurth\\Optoelectronics\\Optocoupler\\WL-OCPT\\WL-OCPT_Series_354 224 144 R0
SYMATTR InstName Q1
SYMBOL npn 496 128 R0
SYMATTR InstName Q2
SYMBOL res 544 -64 R0
SYMATTR InstName R4
SYMATTR Value 4.7k
SYMBOL res 416 192 R0
SYMATTR InstName R8
SYMATTR Value 33k
TEXT 16 -192 Left 2 !.tran 140m
TEXT -264 192 Left 2 ;MOV\n470V
TEXT 192 224 Left 2 ;LTV814
