Version 4.1
SHEET 1 1132 824
WIRE -1136 -128 -1136 -160
WIRE -1328 -112 -1328 -160
WIRE -336 -96 -496 -96
WIRE -32 -96 -256 -96
WIRE 0 -96 -32 -96
WIRE 144 -96 144 -128
WIRE 144 -96 80 -96
WIRE -1040 -80 -1040 -112
WIRE -1136 -16 -1136 -48
WIRE 144 0 144 -96
WIRE -1328 16 -1328 -32
WIRE -32 16 -32 -96
WIRE -48 32 -112 32
WIRE -1040 48 -1040 0
WIRE -960 48 -1040 48
WIRE -784 48 -800 48
WIRE -656 48 -704 48
WIRE -624 48 -656 48
WIRE -496 48 -496 -96
WIRE -496 48 -544 48
WIRE -416 48 -496 48
WIRE -496 64 -496 48
WIRE -48 64 -64 64
WIRE -64 112 -64 64
WIRE -64 112 -112 112
WIRE -1136 128 -1136 48
WIRE -1040 128 -1136 128
WIRE -960 128 -1040 128
WIRE -544 128 -800 128
WIRE -656 160 -656 48
WIRE -416 160 -416 128
WIRE -1040 176 -1040 128
WIRE -1376 224 -1376 192
WIRE -1248 224 -1376 224
WIRE -1104 224 -1168 224
WIRE -496 224 -496 128
WIRE -416 224 -496 224
WIRE -1376 272 -1376 224
WIRE -656 288 -656 224
WIRE -496 288 -496 224
WIRE -496 288 -656 288
WIRE -32 288 -32 80
WIRE -32 288 -496 288
WIRE 144 288 144 80
WIRE 144 288 -32 288
WIRE 144 304 144 288
WIRE -1040 320 -1040 272
WIRE -1376 384 -1376 352
FLAG 144 304 0
FLAG -1376 384 0
FLAG -1040 320 0
FLAG 144 -128 LI
FLAG -1376 192 TRIG
FLAG -1328 16 0
FLAG -1040 -112 VCC
FLAG -1328 -160 VCC
FLAG -1136 -160 VCC
SYMBOL res -240 -112 R90
WINDOW 0 0 56 VBottom 2
WINDOW 3 32 56 VTop 2
SYMATTR InstName LOAD
SYMATTR Value 500
SYMBOL res -800 64 R270
WINDOW 0 32 56 VTop 2
WINDOW 3 0 56 VBottom 2
SYMATTR InstName R2
SYMATTR Value 360
SYMBOL voltage 144 96 R180
WINDOW 123 0 0 Left 0
WINDOW 39 0 0 Left 0
WINDOW 0 44 57 Left 2
WINDOW 3 -57 -19 VRight 2
SYMATTR InstName V1
SYMATTR Value SINE(0 325 50)
SYMBOL res -1056 -96 R0
SYMATTR InstName R3
SYMATTR Value 220
SYMBOL voltage -1376 256 R0
WINDOW 3 -62 -256 VRight 2
WINDOW 123 0 0 Left 0
WINDOW 39 0 0 Left 0
WINDOW 0 42 38 Left 2
SYMATTR Value PULSE(0 3.3 0.004 1u 1u 100u 10m)
SYMATTR InstName V2
SYMBOL res -640 64 R270
WINDOW 0 32 56 VTop 2
WINDOW 3 0 56 VBottom 2
SYMATTR InstName R4
SYMATTR Value 470
SYMBOL cap -672 160 R0
WINDOW 0 -39 24 Left 2
WINDOW 3 -49 47 Left 2
SYMATTR InstName C1
SYMATTR Value 47n
SYMBOL cap -432 160 R0
WINDOW 0 47 28 Left 2
WINDOW 3 47 58 Left 2
SYMATTR InstName C2
SYMATTR Value 10n
SYMBOL res -432 32 R0
WINDOW 0 48 47 Left 2
WINDOW 3 50 72 Left 2
SYMATTR InstName R1
SYMATTR Value 39
SYMBOL SpecialFunctions\\varistor -16 112 M180
WINDOW 0 5 84 Left 2
SYMATTR InstName A1
SYMBOL voltage -112 16 R0
WINDOW 0 -69 43 Left 2
WINDOW 3 -85 70 Left 2
WINDOW 123 0 0 Left 0
WINDOW 39 0 0 Left 0
SYMATTR InstName V3
SYMATTR Value 470
SYMBOL res 96 -112 R90
WINDOW 0 0 56 VBottom 2
WINDOW 3 32 56 Invisible 2
SYMATTR InstName FUSE
SYMATTR Value 0
SYMBOL npn -1104 176 R0
SYMATTR InstName Q1
SYMATTR Value BC337-40
SYMBOL voltage -1328 -128 R0
WINDOW 0 39 47 Left 2
WINDOW 3 39 74 Left 2
WINDOW 123 0 0 Left 0
WINDOW 39 0 0 Left 0
SYMATTR InstName V4
SYMATTR Value 3.3
SYMBOL res -1152 208 R90
WINDOW 0 0 56 VBottom 2
WINDOW 3 32 56 VTop 2
SYMATTR InstName R5
SYMATTR Value 1.5K
SYMBOL LED -1152 -16 R0
WINDOW 0 -41 28 Left 2
WINDOW 3 -27 50 Left 2
SYMATTR InstName D1
SYMBOL res -1152 -144 R0
SYMATTR InstName R6
SYMATTR Value 470
SYMBOL MyLib\\Opto\\MOC3021 -912 64 R0
SYMATTR InstName U3
SYMBOL MyLib\\TRIAC\\Q8004L4 -528 64 R0
WINDOW 0 50 65 Left 2
SYMATTR InstName U4
TEXT -952 -192 Left 2 !.tran 40m
TEXT -8 56 Left 2 ;MOV\n470V
TEXT -384 128 Left 2 ;2W
TEXT -384 240 Left 2 ;400V
TEXT -736 232 Left 2 ;400V
TEXT 24 -64 Left 2 ;2A
