Version 4.1
SHEET 1 1132 824
WIRE -288 -96 -496 -96
WIRE -496 -64 -496 -96
WIRE -288 16 -288 -96
WIRE -1104 48 -1232 48
WIRE -960 48 -1024 48
WIRE -784 48 -800 48
WIRE -656 48 -704 48
WIRE -624 48 -656 48
WIRE -496 48 -496 16
WIRE -496 48 -544 48
WIRE -496 64 -496 48
WIRE -1232 80 -1232 48
WIRE -960 128 -1008 128
WIRE -544 128 -800 128
WIRE -656 144 -656 48
WIRE -1232 192 -1232 160
WIRE -656 224 -656 208
WIRE -496 224 -496 128
WIRE -496 224 -656 224
WIRE -288 224 -288 96
WIRE -288 224 -496 224
WIRE -288 240 -288 224
FLAG -288 240 0
FLAG -1232 192 0
FLAG -1008 128 0
SYMBOL Misc\\TRIAC -528 64 R0
SYMATTR InstName U1
SYMATTR Value Q8004L4
SYMBOL res -512 -80 R0
SYMATTR InstName LOAD
SYMATTR Value 100
SYMBOL res -800 64 R270
WINDOW 0 32 56 VTop 2
WINDOW 3 0 56 VBottom 2
SYMATTR InstName R2
SYMATTR Value 100
SYMBOL voltage -288 0 R0
WINDOW 123 0 0 Left 0
WINDOW 39 0 0 Left 0
SYMATTR InstName V1
SYMATTR Value SINE(0 325 50)
SYMBOL res -1120 64 R270
WINDOW 0 32 56 VTop 2
WINDOW 3 0 56 VBottom 2
SYMATTR InstName R3
SYMATTR Value 300
SYMBOL voltage -1232 64 R0
WINDOW 3 -61 178 Left 2
WINDOW 123 0 0 Left 0
WINDOW 39 0 0 Left 0
SYMATTR Value PULSE(0 5 0.004 1u 1u 100u 10m)
SYMATTR InstName V2
SYMBOL res -640 64 R270
WINDOW 0 32 56 VTop 2
WINDOW 3 0 56 VBottom 2
SYMATTR InstName R4
SYMATTR Value 100
SYMBOL cap -672 144 R0
SYMATTR InstName C1
SYMATTR Value 47n
SYMBOL Extra\\Opto_MOC30xx -912 64 R0
SYMATTR SpiceModel MOC3021
SYMATTR InstName U2
TEXT -1168 336 Left 2 !.tran 40m
TEXT -1168 368 Left 2 !.inc Opto_MOC3021.lib
TEXT -1168 400 Left 2 !.inc TRIAC_Q8004L4.lib
