Version 4.1
SHEET 1 880 680
WIRE 288 -128 48 -128
WIRE 48 -96 48 -128
WIRE 288 -96 288 -128
WIRE 48 16 48 -16
WIRE 288 32 288 -16
WIRE 288 144 288 96
WIRE 32 192 -128 192
WIRE 160 192 112 192
WIRE 224 192 160 192
WIRE -128 224 -128 192
WIRE 160 224 160 192
WIRE 160 320 160 304
WIRE 288 320 288 240
WIRE 288 320 160 320
WIRE -128 336 -128 304
WIRE 288 352 288 320
FLAG 288 352 0
FLAG 48 16 0
FLAG -128 336 0
SYMBOL npn 224 144 R0
WINDOW 0 77 39 Left 2
WINDOW 3 77 68 Left 2
SYMATTR InstName Q1
SYMATTR Value BC337-40
SYMBOL res 128 176 R90
WINDOW 0 0 56 VBottom 2
WINDOW 3 32 56 VTop 2
SYMATTR InstName R2
SYMATTR Value 2.2k
SYMBOL res 176 320 R180
WINDOW 0 48 64 Left 2
WINDOW 3 48 40 Left 2
SYMATTR InstName R3
SYMATTR Value 10k
SYMBOL res 272 -112 R0
SYMATTR InstName R1
SYMATTR Value 330
SYMBOL voltage 48 -112 R0
WINDOW 0 38 47 Left 2
WINDOW 3 41 75 Left 2
WINDOW 123 0 0 Left 0
WINDOW 39 0 0 Left 0
SYMATTR InstName V1
SYMATTR Value 3.3
SYMBOL voltage -128 208 R0
WINDOW 0 43 40 Left 2
WINDOW 3 -55 -238 VRight 2
WINDOW 123 0 0 Left 0
WINDOW 39 0 0 Left 0
SYMATTR InstName V2
SYMATTR Value PULSE(0 3.3 0 10n 10n 10m 20m)
SYMBOL Contrib\\Wurth\\Optoelectronics\\SignalLED\\Mono-color\\WL-TMRC 288 80 R0
WINDOW 38 17 15 Invisible 2
WINDOW 0 -66 -24 Left 2
SYMATTR SpiceModel 3mm_151031SS06000
SYMATTR InstName D1
TEXT 160 88 Left 2 ;YELLOW
TEXT -88 336 Left 2 !.tran 60m
