Version 4.1
SHEET 1 1508 680
WIRE 848 -64 848 -112
WIRE 1056 0 1056 -32
WIRE 848 64 848 16
WIRE -656 128 -688 128
WIRE -512 128 -576 128
WIRE -384 128 -384 96
WIRE -384 128 -432 128
WIRE -288 128 -384 128
WIRE -160 128 -288 128
WIRE -16 128 -80 128
WIRE 176 128 -16 128
WIRE 304 128 176 128
WIRE 432 128 304 128
WIRE 544 128 432 128
WIRE 672 128 624 128
WIRE 784 128 672 128
WIRE 912 128 784 128
WIRE 1056 128 1056 64
WIRE 1056 128 912 128
WIRE 1216 128 1056 128
WIRE -288 160 -288 128
WIRE 1056 160 1056 128
WIRE 176 176 176 128
WIRE 304 176 304 128
WIRE 432 176 432 128
WIRE 672 176 672 128
WIRE 784 176 784 128
WIRE 912 176 912 128
WIRE -688 240 -688 128
WIRE 1056 256 1056 224
WIRE 176 272 176 240
WIRE 304 272 304 240
WIRE 432 272 432 240
WIRE 672 272 672 240
WIRE 784 272 784 240
WIRE 912 272 912 240
WIRE -288 288 -288 240
WIRE -688 352 -688 320
FLAG -688 352 0
FLAG 1056 256 0
FLAG 912 272 0
FLAG -384 96 IN
FLAG 1216 128 OUT
IOPIN 1216 128 Out
FLAG 848 64 0
FLAG 848 -112 VCC
FLAG 1056 -32 VCC
FLAG 784 272 0
FLAG 432 272 0
FLAG 304 272 0
FLAG -288 288 0
FLAG 672 272 0
FLAG 176 272 0
FLAG -16 256 0
SYMBOL voltage -688 224 R0
WINDOW 0 42 46 Left 2
WINDOW 3 75 71 Right 2
WINDOW 123 0 0 Left 0
WINDOW 39 0 0 Left 0
SYMATTR InstName V1
SYMATTR Value 2
SYMBOL res 640 112 R90
WINDOW 0 0 56 VBottom 2
WINDOW 3 32 56 VTop 2
SYMATTR InstName R1
SYMATTR Value 220
SYMBOL cap 896 176 R0
SYMATTR InstName C2
SYMATTR Value 100n
SYMBOL diode 1072 64 R180
WINDOW 0 -43 37 Left 2
WINDOW 3 -83 13 Left 2
SYMATTR InstName D3
SYMATTR Value BAT54
SYMBOL voltage 848 -80 R0
WINDOW 0 41 37 Left 2
WINDOW 3 46 65 Left 2
WINDOW 123 0 0 Left 0
WINDOW 39 0 0 Left 0
SYMATTR InstName V2
SYMATTR Value 3.3
SYMBOL voltage -560 128 R90
WINDOW 0 52 39 VRight 2
WINDOW 3 -51 -29 VRight 0
WINDOW 123 0 0 Left 0
WINDOW 39 0 0 Left 0
SYMATTR InstName V3
SYMATTR Value PULSE(0 0.2 0 10n 10n {0.5/2k} {1/2k} 150)
SYMBOL cap 768 176 R0
SYMATTR InstName C3
SYMATTR Value 10µ
SYMBOL res -64 112 R90
WINDOW 0 0 56 VBottom 2
WINDOW 3 32 56 VTop 2
SYMATTR InstName R2
SYMATTR Value 220
SYMBOL cap 416 176 R0
SYMATTR InstName C1
SYMATTR Value 100n
SYMBOL cap 288 176 R0
SYMATTR InstName C4
SYMATTR Value 10µ
SYMBOL res -304 144 R0
SYMATTR InstName R3
SYMATTR Value 47k
SYMBOL cap 656 176 R0
SYMATTR InstName C5
SYMATTR Value 10µ
SYMBOL cap 160 176 R0
SYMATTR InstName C6
SYMATTR Value 10µ
SYMBOL diode 1072 224 R180
WINDOW 0 -43 37 Left 2
WINDOW 3 -87 11 Left 2
SYMATTR InstName D1
SYMATTR Value BAT54
SYMBOL voltage -416 128 R90
WINDOW 0 -32 56 VBottom 2
WINDOW 3 32 56 VTop 0
WINDOW 123 0 0 Left 0
WINDOW 39 0 0 Left 0
SYMATTR InstName V4
SYMATTR Value SINE(0 0.2 2k 130m 0 0 50)
SYMBOL zener 0 256 R180
WINDOW 0 -45 37 Left 2
WINDOW 3 -132 13 Left 2
SYMATTR InstName D4
SYMATTR Value SMBJ24CA
SYMBOL zener -32 128 R0
SYMATTR InstName D5
SYMATTR Value SMBJ24CA
TEXT -608 352 Left 2 !.tran 300m
TEXT 1192 184 Left 2 ;ADC Input
TEXT -608 384 Left 2 !.inc Diode.lib
TEXT -16 336 Left 2 ;SMBJ3.3CA
LINE Normal 1344 160 1184 160 2
LINE Normal 1184 80 1184 160 2
