Version 4.1
SHEET 1 1508 680
WIRE 848 -64 848 -112
WIRE 1056 0 1056 -32
WIRE 848 64 848 16
WIRE -576 128 -608 128
WIRE -432 128 -496 128
WIRE -304 128 -304 96
WIRE -304 128 -352 128
WIRE -256 128 -304 128
WIRE -144 128 -192 128
WIRE -48 128 -144 128
WIRE 96 128 32 128
WIRE 176 128 96 128
WIRE 304 128 176 128
WIRE 432 128 304 128
WIRE 544 128 432 128
WIRE 672 128 624 128
WIRE 784 128 672 128
WIRE 912 128 784 128
WIRE 1056 128 1056 64
WIRE 1056 128 912 128
WIRE 1216 128 1056 128
WIRE -144 160 -144 128
WIRE 96 160 96 128
WIRE 1056 160 1056 128
WIRE 176 176 176 128
WIRE 304 176 304 128
WIRE 432 176 432 128
WIRE 672 176 672 128
WIRE 784 176 784 128
WIRE 912 176 912 128
WIRE -608 240 -608 128
WIRE 1056 256 1056 224
WIRE 96 272 96 224
WIRE 176 272 176 240
WIRE 304 272 304 240
WIRE 432 272 432 240
WIRE 672 272 672 240
WIRE 784 272 784 240
WIRE 912 272 912 240
WIRE -144 288 -144 240
WIRE -608 352 -608 320
FLAG -608 352 0
FLAG 1056 256 0
FLAG 912 272 0
FLAG -304 96 IN
FLAG 1216 128 OUT
IOPIN 1216 128 Out
FLAG 848 64 0
FLAG 848 -112 VCC
FLAG 1056 -32 VCC
FLAG 784 272 0
FLAG 432 272 0
FLAG 304 272 0
FLAG -144 288 0
FLAG 672 272 0
FLAG 176 272 0
FLAG 96 272 0
SYMBOL voltage -608 224 R0
WINDOW 0 42 46 Left 2
WINDOW 3 59 71 Right 2
WINDOW 123 0 0 Left 0
WINDOW 39 0 0 Left 0
SYMATTR InstName V1
SYMATTR Value 2
SYMBOL res 640 112 R90
WINDOW 0 0 56 VBottom 2
WINDOW 3 32 56 VTop 2
SYMATTR InstName R1
SYMATTR Value 220
SYMBOL cap 896 176 R0
SYMATTR InstName C2
SYMATTR Value 100n
SYMBOL diode 1072 64 R180
WINDOW 0 -43 37 Left 2
WINDOW 3 -83 13 Left 2
SYMATTR InstName D3
SYMATTR Value BAT54
SYMBOL voltage 848 -80 R0
WINDOW 0 41 37 Left 2
WINDOW 3 46 65 Left 2
WINDOW 123 0 0 Left 0
WINDOW 39 0 0 Left 0
SYMATTR InstName V2
SYMATTR Value {Volt}
SYMBOL voltage -480 128 R90
WINDOW 0 52 39 VRight 2
WINDOW 3 -51 -29 VRight 0
WINDOW 123 0 0 Left 0
WINDOW 39 0 0 Left 0
SYMATTR InstName V3
SYMATTR Value PULSE(0 0.2 0 10n 10n {0.5/2k} {1/2k} 150)
SYMBOL FerriteBead -224 128 R90
WINDOW 0 -16 0 VBottom 2
SYMATTR InstName L1
SYMATTR Value 100n
SYMATTR SpiceLine Rser=0.05
SYMBOL cap 768 176 R0
SYMATTR InstName C3
SYMATTR Value 10µ
SYMBOL res 48 112 R90
WINDOW 0 0 56 VBottom 2
WINDOW 3 32 56 VTop 2
SYMATTR InstName R2
SYMATTR Value 220
SYMBOL cap 416 176 R0
SYMATTR InstName C1
SYMATTR Value 100n
SYMBOL cap 288 176 R0
SYMATTR InstName C4
SYMATTR Value 10µ
SYMBOL res -160 144 R0
SYMATTR InstName R3
SYMATTR Value 47k
SYMBOL cap 656 176 R0
SYMATTR InstName C5
SYMATTR Value 10µ
SYMBOL cap 160 176 R0
SYMATTR InstName C6
SYMATTR Value 10µ
SYMBOL diode 1072 224 R180
WINDOW 0 -43 37 Left 2
WINDOW 3 -87 11 Left 2
SYMATTR InstName D1
SYMATTR Value BAT54
SYMBOL Contrib\\Toshiba\\diode\\DF2S14P2CTC 112 224 R180
WINDOW 0 43 35 Left 2
WINDOW 3 44 9 Left 0
SYMATTR InstName U1
SYMBOL voltage -336 128 R90
WINDOW 0 -32 56 VBottom 2
WINDOW 3 32 56 VTop 0
WINDOW 123 0 0 Left 0
WINDOW 39 0 0 Left 0
SYMATTR InstName V4
SYMATTR Value SINE(0 0.2 2k 130m 0 0 50)
TEXT -528 352 Left 2 !.tran 200m
TEXT 600 -64 Left 2 !.param Volt = 3.3
TEXT 1192 184 Left 2 ;ADC Input
TEXT -40 240 Left 2 ;SMBJ3.3A
LINE Normal 1344 160 1184 160 2
LINE Normal 1184 80 1184 160 2
