Version 4.1
SHEET 1 1116 680
WIRE 720 -160 720 -192
WIRE 224 -144 224 -192
WIRE 592 -32 592 -80
WIRE 720 -32 720 -80
WIRE 224 -16 224 -64
WIRE 368 -16 368 -64
WIRE 592 80 592 48
WIRE 720 80 720 32
WIRE 720 80 592 80
WIRE 816 80 720 80
WIRE -592 128 -592 96
WIRE -480 128 -592 128
WIRE -352 128 -400 128
WIRE -304 128 -352 128
WIRE -160 128 -240 128
WIRE -32 128 -80 128
WIRE 160 128 48 128
WIRE 368 128 368 64
WIRE 368 128 288 128
WIRE 592 144 592 80
WIRE -592 160 -592 128
WIRE -160 192 -208 192
WIRE -32 192 -80 192
WIRE 160 192 48 192
WIRE 368 192 288 192
WIRE 496 192 368 192
WIRE 528 192 496 192
WIRE -352 208 -352 128
WIRE -368 224 -432 224
WIRE 368 240 368 192
WIRE 496 240 496 192
WIRE -368 256 -384 256
WIRE -384 304 -384 256
WIRE -384 304 -432 304
WIRE 496 352 496 320
WIRE 592 352 592 240
WIRE 592 352 496 352
WIRE -592 368 -592 240
WIRE -352 368 -352 272
WIRE -352 368 -592 368
WIRE -208 368 -208 192
WIRE -208 368 -352 368
WIRE 368 368 368 304
WIRE 592 384 592 352
WIRE -592 400 -592 368
FLAG -592 400 0
FLAG 224 -16 0
FLAG -592 96 IN
IOPIN -592 96 In
FLAG 592 384 0
FLAG 224 -192 VCC
FLAG 368 -64 VCC
FLAG 592 -80 VCC
FLAG 816 80 OUT
IOPIN 816 80 Out
FLAG 720 -192 VCC
FLAG 368 368 0
SYMBOL res 352 -32 R0
WINDOW 0 48 35 Left 2
WINDOW 3 50 64 Left 2
SYMATTR InstName R1
SYMATTR Value 33
SYMBOL voltage -592 144 R0
WINDOW 123 0 0 Left 0
WINDOW 39 0 0 Left 0
WINDOW 0 27 17 Left 2
WINDOW 3 -67 -42 VRight 2
SYMATTR InstName V1
SYMATTR Value SINE(0 200 20 0 0 0 10)
SYMBOL res 64 112 R90
WINDOW 0 -31 63 VBottom 2
WINDOW 3 -34 54 VTop 2
SYMATTR InstName R2
SYMATTR Value 22k
SYMBOL voltage 224 -160 R0
WINDOW 123 0 0 Left 0
WINDOW 39 0 0 Left 0
WINDOW 0 42 45 Left 2
WINDOW 3 48 74 Left 2
SYMATTR InstName V2
SYMATTR Value 3.3
SYMBOL npn 528 144 R0
SYMATTR InstName Q2
SYMATTR Value BC337-40
SYMBOL res 480 224 R0
WINDOW 0 -46 41 Left 2
WINDOW 3 -51 65 Left 2
SYMATTR InstName R3
SYMATTR Value 10k
SYMBOL res 576 -48 R0
SYMATTR InstName R4
SYMATTR Value 4.7k
SYMBOL LED 704 -32 R0
WINDOW 0 -43 22 Left 2
WINDOW 3 -32 45 Left 2
SYMATTR InstName D3
SYMBOL res 704 -176 R0
SYMATTR InstName R5
SYMATTR Value 670
SYMBOL cap 352 240 R0
SYMATTR InstName C1
SYMATTR Value 10µ
SYMBOL Contrib\\Wurth\\Optoelectronics\\Optocoupler\\WL-OCPT\\WL-OCPT_Series_354 224 160 R0
SYMATTR InstName Q1
SYMBOL cap -240 112 R90
WINDOW 0 0 32 VBottom 2
WINDOW 3 32 32 VTop 2
SYMATTR InstName C2
SYMATTR Value 470n
SYMBOL res -64 112 R90
WINDOW 0 -31 63 VBottom 2
WINDOW 3 -34 54 VTop 2
SYMATTR InstName R6
SYMATTR Value 33k
SYMBOL res -64 176 R90
WINDOW 0 62 57 VBottom 2
WINDOW 3 61 47 VTop 2
SYMATTR InstName R7
SYMATTR Value 33k
SYMBOL res 64 176 R90
WINDOW 0 62 57 VBottom 2
WINDOW 3 63 41 VTop 2
SYMATTR InstName R8
SYMATTR Value 22k
SYMBOL SpecialFunctions\\varistor -336 176 R0
WINDOW 0 2 48 Left 2
SYMATTR InstName A1
SYMBOL voltage -432 208 R0
WINDOW 0 -67 43 Left 2
WINDOW 3 -80 67 Left 2
WINDOW 123 0 0 Left 0
WINDOW 39 0 0 Left 0
SYMATTR InstName V3
SYMATTR Value 220
SYMBOL res -384 112 R90
WINDOW 0 -31 63 VBottom 2
WINDOW 3 -34 54 VTop 2
SYMATTR InstName Fuse
SYMATTR Value 0
TEXT 48 -216 Left 2 !.tran 1000m
TEXT 200 248 Left 2 ;LTV814
TEXT -328 248 Left 2 ;MOV\n220V
TEXT -784 192 Left 2 ;140 Vrms\n20Hz
TEXT -472 160 Left 2 ;100mA
