Version 4.1
SHEET 1 928 692
WIRE -32 96 -32 48
WIRE 144 96 144 48
WIRE -32 208 -32 176
WIRE -624 272 -624 224
WIRE -512 272 -624 272
WIRE -352 272 -432 272
WIRE 144 272 144 176
WIRE 144 272 -160 272
WIRE -624 320 -624 272
WIRE 144 320 144 272
WIRE 416 320 336 320
WIRE 608 320 608 288
WIRE 608 320 496 320
WIRE 608 352 608 320
WIRE -352 368 -400 368
WIRE -64 368 -160 368
WIRE 80 368 16 368
WIRE -400 400 -400 368
WIRE 336 400 336 320
WIRE -624 448 -624 400
WIRE 144 464 144 416
WIRE 288 464 144 464
WIRE 608 464 608 432
WIRE 336 496 336 464
WIRE 336 496 272 496
WIRE 144 512 144 464
WIRE 336 544 336 496
WIRE 144 624 144 592
WIRE 272 624 272 496
WIRE 272 624 144 624
WIRE 144 672 144 624
FLAG 608 464 0
FLAG 336 544 0
FLAG -624 448 0
FLAG 608 288 L1
FLAG -624 224 TRIG
FLAG -32 208 0
FLAG -32 48 VDD
FLAG 144 48 VDD
FLAG 144 672 0
FLAG -400 400 0
SYMBOL voltage 608 448 R180
WINDOW 123 0 0 Left 0
WINDOW 39 0 0 Left 0
WINDOW 0 50 58 Left 2
WINDOW 3 -60 -28 VRight 2
SYMATTR InstName V2
SYMATTR Value SINE(0 310 50)
SYMBOL res 512 304 R90
WINDOW 0 0 56 VBottom 2
WINDOW 3 32 56 VTop 2
SYMATTR InstName LOAD
SYMATTR Value 2.2k
SYMBOL voltage -624 304 R0
WINDOW 0 36 49 Left 2
WINDOW 3 -44 -124 VRight 2
WINDOW 123 0 0 Left 0
WINDOW 39 0 0 Left 0
SYMATTR InstName V1
SYMATTR Value PULSE(0 12 2.5m 1n 1n 100u 10m)
SYMBOL npn 80 320 R0
SYMATTR InstName Q1
SYMATTR Value 2N2222
SYMBOL res 128 496 R0
SYMATTR InstName R3
SYMATTR Value 470
SYMBOL res 128 80 R0
SYMATTR InstName R5
SYMATTR Value 47
SYMBOL voltage -32 80 R0
WINDOW 3 34 67 Left 2
WINDOW 123 0 0 Left 0
WINDOW 39 0 0 Left 0
SYMATTR Value 12
SYMATTR InstName V3
SYMBOL res 32 352 R90
WINDOW 0 0 56 VBottom 2
WINDOW 3 32 56 VTop 2
SYMATTR InstName R2
SYMATTR Value 1k
SYMBOL Optos\\PC817A -256 320 R0
SYMATTR InstName U2
SYMBOL res -416 256 R90
WINDOW 0 0 56 VBottom 2
WINDOW 3 32 56 VTop 2
SYMATTR InstName R4
SYMATTR Value 1k
SYMBOL MyLib\\SCR\\Littelfuse_SCR 320 400 R0
SYMATTR InstName U3
TEXT -312 512 Left 2 !.tran 50m
