Version 4.1
SHEET 1 928 836
WIRE 16 96 16 48
WIRE 176 96 176 48
WIRE -112 144 -112 48
WIRE 176 208 176 176
WIRE -576 272 -576 224
WIRE -496 272 -576 272
WIRE -352 272 -416 272
WIRE -112 272 -112 224
WIRE -112 272 -160 272
WIRE -576 320 -576 272
WIRE 16 320 16 176
WIRE 288 320 208 320
WIRE 480 320 480 288
WIRE 480 320 368 320
WIRE 480 352 480 320
WIRE -352 368 -384 368
WIRE -48 368 -160 368
WIRE -384 400 -384 368
WIRE 208 400 208 320
WIRE -576 448 -576 400
WIRE 16 464 16 416
WIRE 160 464 16 464
WIRE 208 496 208 464
WIRE 208 496 144 496
WIRE 16 512 16 464
WIRE 208 544 208 496
WIRE 480 544 480 432
WIRE 480 544 208 544
WIRE 480 576 480 544
WIRE 16 624 16 592
WIRE 144 624 144 496
WIRE 144 624 16 624
WIRE 16 672 16 624
FLAG 480 576 0
FLAG -576 448 0
FLAG 480 288 L1
FLAG -576 224 TRIG
FLAG 176 208 0
FLAG 176 48 VDD
FLAG 16 48 VDD
FLAG 16 672 0
FLAG -384 400 0
FLAG -112 48 VDD
SYMBOL voltage 480 448 R180
WINDOW 123 0 0 Left 0
WINDOW 39 0 0 Left 0
WINDOW 0 50 58 Left 2
WINDOW 3 -60 -28 VRight 2
SYMATTR InstName V2
SYMATTR Value SINE(0 310 50)
SYMBOL res 384 304 R90
WINDOW 0 0 56 VBottom 2
WINDOW 3 32 56 VTop 2
SYMATTR InstName LOAD
SYMATTR Value 500
SYMBOL voltage -576 304 R0
WINDOW 0 36 49 Left 2
WINDOW 3 -61 -126 VRight 2
WINDOW 123 0 0 Left 0
WINDOW 39 0 0 Left 0
SYMATTR InstName V1
SYMATTR Value PULSE(0 3.3 2.5m 1n 1n 100u 10m)
SYMBOL npn -48 320 R0
SYMATTR InstName Q1
SYMATTR Value 2N2222
SYMBOL res 0 496 R0
SYMATTR InstName R3
SYMATTR Value 470
SYMBOL res 0 80 R0
SYMATTR InstName R5
SYMATTR Value 47
SYMBOL voltage 176 80 R0
WINDOW 3 34 67 Left 2
WINDOW 123 0 0 Left 0
WINDOW 39 0 0 Left 0
SYMATTR Value 12
SYMATTR InstName V3
SYMBOL res -96 240 R180
WINDOW 0 36 76 Left 2
WINDOW 3 36 40 Left 2
SYMATTR InstName R2
SYMATTR Value 1k
SYMBOL Optos\\PC817A -256 320 R0
SYMATTR InstName U2
SYMBOL res -400 256 R90
WINDOW 0 0 56 VBottom 2
WINDOW 3 32 56 VTop 2
SYMATTR InstName R4
SYMATTR Value 330
SYMBOL MyLib\\TRIAC\\2N6071B 176 400 R0
SYMATTR InstName U1
TEXT 272 32 Left 2 !.tran 50m
TEXT 48 168 Left 2 ;2W
