Version 4.1
SHEET 1 880 680
WIRE 64 -16 64 -48
WIRE 464 -16 464 -48
WIRE 464 -16 336 -16
WIRE 464 16 464 -16
WIRE 64 112 64 64
WIRE 336 112 336 -16
WIRE 464 160 464 96
WIRE 464 160 400 160
WIRE 464 240 464 160
WIRE 336 288 336 208
WIRE 400 288 336 288
WIRE 336 320 336 288
WIRE 464 416 464 336
WIRE 336 432 336 400
WIRE 464 544 464 496
FLAG 64 112 0
FLAG 464 544 0
FLAG 336 432 0
FLAG 64 -48 VDD
FLAG 464 -48 VDD
SYMBOL voltage 64 -32 R0
WINDOW 0 -70 43 Left 2
WINDOW 3 -69 68 Left 2
WINDOW 123 0 0 Left 0
WINDOW 39 0 0 Left 0
SYMATTR InstName V1
SYMATTR Value 12
SYMBOL res 352 416 R180
WINDOW 0 48 64 Left 2
WINDOW 3 48 40 Left 2
SYMATTR InstName R1
SYMATTR Value 1k
SYMBOL res 480 112 R180
WINDOW 0 48 64 Left 2
WINDOW 3 48 40 Left 2
SYMATTR InstName R2
SYMATTR Value 23
SYMBOL res 480 512 R180
WINDOW 0 -77 74 Left 2
WINDOW 3 -26 47 Left 2
SYMATTR InstName LOAD
SYMATTR Value 6
SYMBOL pnp 400 336 M180
WINDOW 0 103 63 Right 2
WINDOW 3 194 30 Right 2
SYMATTR InstName Q1
SYMATTR Value BC327-40
SYMBOL pnp 400 208 R180
WINDOW 0 106 67 Right 2
WINDOW 3 183 30 Right 2
SYMATTR InstName Q2
SYMATTR Value BC327-40
TEXT 16 152 Left 2 !.tran 10m
TEXT 504 16 Left 2 ;R2 = 0.7v / Current\nR2 = 0.7v / 30mA\nR2 = 23
