Version 4.1
SHEET 1 1116 680
WIRE -192 48 -224 48
WIRE -80 48 -112 48
WIRE -704 128 -704 96
WIRE -480 128 -704 128
WIRE -352 128 -400 128
WIRE -224 128 -224 48
WIRE -224 128 -352 128
WIRE -192 128 -224 128
WIRE -80 128 -80 48
WIRE -80 128 -128 128
WIRE 32 128 -80 128
WIRE 224 128 32 128
WIRE -704 160 -704 128
WIRE 32 176 32 128
WIRE 224 176 224 128
WIRE -352 208 -352 128
WIRE -368 224 -432 224
WIRE -368 256 -384 256
WIRE 32 272 32 240
WIRE 224 272 224 240
WIRE -384 304 -384 256
WIRE -384 304 -432 304
WIRE -704 368 -704 240
WIRE -352 368 -352 272
WIRE -352 368 -704 368
WIRE -208 368 -352 368
WIRE 32 368 32 336
WIRE 32 368 -128 368
WIRE 224 368 224 336
WIRE 224 368 32 368
WIRE -704 400 -704 368
FLAG -704 400 0
FLAG -704 96 IN
SYMBOL voltage -704 144 R0
WINDOW 123 0 0 Left 0
WINDOW 39 0 0 Left 0
WINDOW 0 40 34 Left 2
WINDOW 3 -60 0 VRight 2
SYMATTR InstName V1
SYMATTR Value SINE(0 310 50)
SYMBOL cap -128 112 R90
WINDOW 0 0 32 VBottom 2
WINDOW 3 32 32 VTop 2
SYMATTR InstName C2
SYMATTR Value 220n
SYMBOL res -112 352 R90
WINDOW 0 -29 54 VBottom 2
WINDOW 3 -34 54 VTop 2
SYMATTR InstName R6
SYMATTR Value 1k
SYMBOL SpecialFunctions\\varistor -336 176 R0
WINDOW 0 2 48 Left 2
SYMATTR InstName A1
SYMBOL voltage -432 208 R0
WINDOW 0 -67 43 Left 2
WINDOW 3 -80 67 Left 2
WINDOW 123 0 0 Left 0
WINDOW 39 0 0 Left 0
SYMATTR InstName V3
SYMATTR Value 470
SYMBOL res -384 112 R90
WINDOW 0 -31 63 VBottom 2
WINDOW 3 -34 54 VTop 2
SYMATTR InstName Fuse
SYMATTR Value 0
SYMBOL LED 208 176 R0
WINDOW 0 -67 27 Left 2
WINDOW 3 -29 50 Left 2
SYMATTR InstName LED1
SYMBOL LED 208 272 R0
WINDOW 0 -67 27 Left 2
WINDOW 3 -29 50 Left 2
SYMATTR InstName LED2
SYMBOL LED 48 336 R180
WINDOW 0 -70 42 Left 2
WINDOW 3 -30 19 Left 2
SYMATTR InstName LED4
SYMBOL LED 48 240 R180
WINDOW 0 -69 41 Left 2
WINDOW 3 -28 17 Left 2
SYMATTR InstName LED3
SYMBOL res -96 32 R90
WINDOW 0 -31 63 VBottom 2
WINDOW 3 -34 54 VTop 2
SYMATTR InstName R1
SYMATTR Value 1Meg
TEXT -648 416 Left 2 !.tran 40m
TEXT -328 248 Left 2 ;MOV\n470V
TEXT -664 208 Left 2 ;220 Vrms\n50Hz
TEXT -472 160 Left 2 ;100mA
TEXT -192 184 Left 2 ;400V
TEXT -192 400 Left 2 ;1W
TEXT 80 392 Left 2 ;Red LEDs
