Version 4.1
SHEET 1 1852 680
WIRE 480 -32 480 -64
WIRE 768 -32 768 -80
WIRE 416 16 384 16
WIRE 272 96 16 96
WIRE 384 96 384 16
WIRE 384 96 352 96
WIRE 480 96 480 64
WIRE 624 96 480 96
WIRE 768 96 768 32
WIRE 768 96 688 96
WIRE 832 96 768 96
WIRE 1104 96 1008 96
WIRE 1280 96 1168 96
WIRE 1360 96 1280 96
WIRE 1488 96 1424 96
WIRE 1600 96 1488 96
WIRE 1760 96 1600 96
WIRE 1760 112 1760 96
WIRE 480 128 480 96
WIRE 768 128 768 96
WIRE 1280 128 1280 96
WIRE 1488 128 1488 96
WIRE 1600 128 1600 96
WIRE 16 144 16 96
WIRE -400 160 -400 112
WIRE -288 176 -288 112
WIRE -160 176 -160 112
WIRE 384 176 384 96
WIRE 416 176 384 176
WIRE 768 224 768 192
WIRE 832 224 832 176
WIRE 1008 224 1008 176
WIRE 1280 224 1280 192
WIRE 1280 224 1008 224
WIRE 1488 224 1488 192
WIRE 1488 224 1280 224
WIRE 1600 224 1600 192
WIRE 1600 224 1488 224
WIRE 1760 224 1760 192
WIRE 1760 224 1600 224
WIRE 16 256 16 224
WIRE -288 272 -288 240
WIRE -160 272 -160 240
WIRE 480 272 480 224
WIRE -400 304 -400 240
FLAG 16 256 0
FLAG 832 224 0
FLAG -160 112 VDD
FLAG -400 304 0
FLAG 480 -64 VDD
FLAG 480 272 0
FLAG -288 112 VDD
FLAG -288 272 0
FLAG -160 272 0
FLAG -400 112 VDD
FLAG 768 224 0
FLAG 768 -80 VDD
SYMBOL voltage 16 128 R0
WINDOW 3 24 96 Invisible 2
WINDOW 123 0 0 Left 0
WINDOW 39 0 0 Left 0
SYMATTR Value PULSE(0 12 0 {0.01/Fs} {0.01/Fs} {0.5/Fs} {1/Fs})
SYMATTR InstName V1
SYMBOL npn 416 -32 R0
SYMATTR InstName Q1
SYMATTR Value 2SCR562F3
SYMBOL pnp 416 224 M180
SYMATTR InstName Q2
SYMATTR Value 2SAR562F3
SYMBOL res 368 80 R90
WINDOW 0 0 56 VBottom 2
WINDOW 3 32 56 VTop 2
SYMATTR InstName R1
SYMATTR Value 100
SYMBOL cap 688 80 R90
WINDOW 0 0 32 VBottom 2
WINDOW 3 32 32 VTop 2
SYMATTR InstName C1
SYMATTR Value 220µ
SYMBOL ind 816 80 R0
SYMATTR InstName L1
SYMATTR Value 2m
SYMATTR Type ind
SYMBOL voltage -400 144 R0
WINDOW 0 37 40 Left 2
WINDOW 3 37 71 Left 2
WINDOW 123 0 0 Left 0
WINDOW 39 0 0 Left 0
SYMATTR InstName V2
SYMATTR Value 12
SYMBOL cap -304 176 R0
SYMATTR InstName C2
SYMATTR Value 100n
SYMBOL cap -176 176 R0
SYMATTR InstName C3
SYMATTR Value 22µ
SYMBOL ind 1024 80 M0
SYMATTR InstName L2
SYMATTR Value 2m
SYMATTR Type ind
SYMBOL cap 1168 80 R90
WINDOW 0 0 32 VBottom 2
WINDOW 3 32 32 VTop 2
SYMATTR InstName C4
SYMATTR Value 1µ
SYMBOL diode 1296 192 R180
WINDOW 0 49 40 Left 2
WINDOW 3 48 16 Left 2
SYMATTR InstName D1
SYMATTR Value 1N4148
SYMBOL diode 1360 112 R270
WINDOW 0 32 32 VTop 2
WINDOW 3 0 32 VBottom 2
SYMATTR InstName D2
SYMATTR Value 1N4148
SYMBOL cap 1472 128 R0
SYMATTR InstName C5
SYMATTR Value 1µ
SYMBOL cap 1584 128 R0
SYMATTR InstName C6
SYMATTR Value 100n
SYMBOL res 1744 96 R0
SYMATTR InstName Load
SYMATTR Value 100
SYMBOL diode 784 192 R180
WINDOW 0 49 40 Left 2
WINDOW 3 48 16 Left 2
SYMATTR InstName D3
SYMATTR Value 1N5819
SYMBOL diode 784 32 R180
WINDOW 0 49 40 Left 2
WINDOW 3 48 16 Left 2
SYMATTR InstName D4
SYMATTR Value 1N5819
TEXT 80 256 Left 2 !.param Fs=1KHz
TEXT -360 384 Left 2 !.tran 50m
TEXT 832 32 Left 2 !K1 L1 L2 1
