Version 4.1
SHEET 1 1292 820
WIRE 720 -48 720 -96
WIRE 352 -32 352 -64
WIRE 464 -32 352 -32
WIRE 352 0 352 -32
WIRE 464 16 464 -32
WIRE 720 48 720 32
WIRE 960 48 720 48
WIRE 720 80 720 48
WIRE -304 128 -304 112
WIRE -192 128 -304 128
WIRE -48 128 -112 128
WIRE 128 128 32 128
WIRE 352 128 352 80
WIRE 352 128 256 128
WIRE 464 128 464 80
WIRE 464 128 352 128
WIRE 528 128 464 128
WIRE 656 128 608 128
WIRE -304 160 -304 128
WIRE 128 192 48 192
WIRE 352 192 256 192
WIRE -192 224 -224 224
WIRE -48 224 -112 224
WIRE 48 224 48 192
WIRE 48 224 32 224
WIRE 720 224 720 176
WIRE -304 256 -304 240
WIRE -224 256 -224 224
WIRE -224 256 -304 256
WIRE -304 288 -304 256
WIRE 352 288 352 192
WIRE 944 368 944 320
WIRE 544 416 544 368
WIRE 944 496 944 448
WIRE 544 544 544 496
WIRE 944 608 944 560
WIRE 752 656 672 656
WIRE 880 656 832 656
WIRE 944 752 944 704
FLAG -304 288 0
FLAG 544 544 0
FLAG -304 112 L1
FLAG 352 288 0
FLAG 544 368 VCC
FLAG 352 -64 VCC
FLAG 720 224 0
FLAG 720 -96 VCC
FLAG 960 48 OUT
IOPIN 960 48 Out
FLAG 944 752 0
FLAG 944 320 VCC
FLAG 672 656 OUT
IOPIN 672 656 In
SYMBOL res 336 -16 R0
SYMATTR InstName R1
SYMATTR Value 33k
SYMBOL voltage -304 144 R0
WINDOW 123 0 0 Left 0
WINDOW 39 0 0 Left 0
WINDOW 0 39 36 Left 2
WINDOW 3 -57 -79 VRight 2
SYMATTR InstName V1
SYMATTR Value SINE(0 310 50 300m 0 0 100)
SYMBOL res 48 112 R90
WINDOW 0 0 56 VBottom 2
WINDOW 3 32 56 VTop 2
SYMATTR InstName R2
SYMATTR Value 33k
SYMBOL voltage 544 400 R0
WINDOW 123 0 0 Left 0
WINDOW 39 0 0 Left 0
WINDOW 0 -70 41 Left 2
WINDOW 3 -56 69 Left 2
SYMATTR InstName V2
SYMATTR Value 5
SYMBOL res -96 112 R90
WINDOW 0 0 56 VBottom 2
WINDOW 3 32 56 VTop 2
SYMATTR InstName R3
SYMATTR Value 33k
SYMBOL res 48 208 R90
WINDOW 0 0 56 VBottom 2
WINDOW 3 32 56 VTop 2
SYMATTR InstName R4
SYMATTR Value 33k
SYMBOL res -96 208 R90
WINDOW 0 0 56 VBottom 2
WINDOW 3 32 56 VTop 2
SYMATTR InstName R5
SYMATTR Value 33k
SYMBOL cap 448 16 R0
SYMATTR InstName C1
SYMATTR Value 1µ
SYMBOL npn 656 80 R0
SYMATTR InstName Q1
SYMBOL res 624 112 R90
WINDOW 0 0 56 VBottom 2
WINDOW 3 32 56 VTop 2
SYMATTR InstName R9
SYMATTR Value 33k
SYMBOL LED 928 496 R0
WINDOW 0 -64 20 Left 2
WINDOW 3 -36 45 Left 2
SYMATTR InstName LED
SYMBOL res 704 -64 R0
SYMATTR InstName R7
SYMATTR Value 2.2k
SYMBOL npn 880 608 R0
SYMATTR InstName Q2
SYMBOL res 848 640 R90
WINDOW 0 0 56 VBottom 2
WINDOW 3 32 56 VTop 2
SYMATTR InstName R6
SYMATTR Value 33k
SYMBOL res 928 352 R0
SYMATTR InstName R10
SYMATTR Value 2.2k
SYMBOL Contrib\\Wurth\\Optoelectronics\\Optocoupler\\WL-OCPT\\WL-OCPT_Series_354 192 160 R0
SYMATTR InstName Q3
TEXT 384 376 Left 2 !.tran 3
TEXT 160 248 Left 2 ;LTV814
