Version 4.1
SHEET 1 1584 916
WIRE 704 192 560 192
WIRE 832 192 704 192
WIRE 1024 192 896 192
WIRE 1152 192 1024 192
WIRE 1216 192 1152 192
WIRE 1024 240 1024 192
WIRE 560 272 560 192
WIRE 704 272 704 192
WIRE 1152 272 1152 192
WIRE 1024 352 1024 304
WIRE 704 368 704 336
WIRE 560 384 560 352
WIRE 1024 480 1024 432
WIRE 1152 480 1152 336
WIRE 1152 480 1024 480
WIRE 1216 480 1216 272
WIRE 1216 480 1152 480
WIRE 1216 496 1216 480
WIRE 1280 496 1216 496
WIRE 1216 544 1216 496
WIRE 1472 544 1216 544
WIRE 1216 608 1216 544
WIRE 1472 640 1472 544
WIRE 944 688 928 688
WIRE 992 688 944 688
WIRE 1120 688 1072 688
WIRE 1168 688 1120 688
WIRE 1120 720 1120 688
WIRE 1216 736 1216 704
WIRE 1472 736 1472 704
WIRE 1472 736 1216 736
WIRE 944 784 944 688
WIRE 1216 784 1216 736
WIRE 1120 848 1120 800
WIRE 944 896 944 864
FLAG 560 384 0
FLAG 1280 496 OUT
FLAG 944 896 0
FLAG 928 688 IN
FLAG 1216 784 0
FLAG 704 368 0
FLAG 1120 848 0
SYMBOL voltage 560 256 R0
WINDOW 123 0 0 Left 0
WINDOW 39 24 105 Left 2
WINDOW 0 37 39 Left 2
WINDOW 3 38 73 Left 2
SYMATTR SpiceLine Rser=0
SYMATTR InstName V1
SYMATTR Value 12
SYMBOL res 1088 672 R90
WINDOW 0 0 56 VBottom 2
WINDOW 3 32 56 VTop 2
SYMATTR InstName R1
SYMATTR Value 10
SYMBOL voltage 944 768 R0
WINDOW 123 0 0 Left 0
WINDOW 39 0 0 Left 0
WINDOW 0 -75 48 Left 2
WINDOW 3 -361 80 Left 2
SYMATTR InstName V2
SYMATTR Value PULSE(0 12 0 1n 1n 3u 10u)
SYMBOL ind 1200 176 R0
SYMATTR InstName L1
SYMATTR Value 250µ
SYMATTR SpiceLine Rser=0.07
SYMBOL diode 1488 704 R180
WINDOW 0 -38 45 Left 2
WINDOW 3 -91 21 Left 2
SYMATTR InstName D1
SYMATTR Value 1N4148
SYMBOL diode 1168 336 R180
WINDOW 0 44 35 Left 2
WINDOW 3 24 0 Left 2
SYMATTR InstName D2
SYMATTR Value 1N4148
SYMBOL cap 1040 304 R180
WINDOW 0 24 56 Left 2
WINDOW 3 24 8 Left 2
SYMATTR InstName C1
SYMATTR Value 100n
SYMBOL res 1008 336 R0
WINDOW 0 -54 34 Left 2
WINDOW 3 -54 67 Left 2
SYMATTR InstName R2
SYMATTR Value 2.2
SYMBOL nmos 1168 608 R0
SYMATTR InstName M1
SYMATTR Value BSC100N06LS3
SYMBOL cap 688 272 R0
SYMATTR InstName C2
SYMATTR Value 1000µ
SYMBOL diode 832 208 R270
WINDOW 0 32 32 VTop 2
WINDOW 3 0 32 VBottom 2
SYMATTR InstName D3
SYMATTR Value RB088NS150
SYMBOL res 1104 704 R0
SYMATTR InstName R3
SYMATTR Value 22K
TEXT 568 480 Left 2 !.tran 2.5m
