Version 4.1
SHEET 1 2412 1460
WIRE 1536 -96 1424 -96
WIRE 1696 -96 1600 -96
WIRE 1824 -96 1696 -96
WIRE 1984 -96 1824 -96
WIRE 2224 -96 1984 -96
WIRE 1696 -64 1696 -96
WIRE 1824 -64 1824 -96
WIRE 1984 -64 1984 -96
WIRE 1424 48 1424 -16
WIRE 1696 48 1696 0
WIRE 1696 48 1424 48
WIRE 1824 48 1824 0
WIRE 1824 48 1696 48
WIRE 1984 48 1984 16
WIRE 1984 48 1824 48
WIRE 2240 48 1984 48
WIRE 2240 96 2240 48
WIRE 64 192 64 160
WIRE 176 192 64 192
WIRE 336 192 256 192
WIRE 448 192 336 192
WIRE 560 192 448 192
WIRE 672 192 560 192
WIRE 800 192 672 192
WIRE 992 192 800 192
WIRE 1104 192 992 192
WIRE 1216 192 1104 192
WIRE 1536 192 1424 192
WIRE 1696 192 1600 192
WIRE 1824 192 1696 192
WIRE 1984 192 1824 192
WIRE 2080 192 1984 192
WIRE 2224 192 2080 192
WIRE 64 224 64 192
WIRE 336 224 336 192
WIRE 448 224 448 192
WIRE 560 224 560 192
WIRE 672 224 672 192
WIRE 800 224 800 192
WIRE 992 224 992 192
WIRE 1104 224 1104 192
WIRE 1696 224 1696 192
WIRE 1824 224 1824 192
WIRE 1984 224 1984 192
WIRE 336 320 336 288
WIRE 448 320 448 288
WIRE 560 320 560 288
WIRE 672 320 672 288
WIRE 800 320 800 288
WIRE 64 336 64 304
WIRE 992 336 992 288
WIRE 1104 336 1104 304
WIRE 1104 336 992 336
WIRE 1424 336 1424 272
WIRE 1696 336 1696 288
WIRE 1696 336 1424 336
WIRE 1824 336 1824 288
WIRE 1824 336 1696 336
WIRE 1984 336 1984 304
WIRE 1984 336 1824 336
WIRE 2128 336 1984 336
WIRE 2240 336 2128 336
WIRE 1104 368 1104 336
WIRE 2240 384 2240 336
WIRE 1104 480 1104 432
WIRE 1216 480 1216 272
WIRE 1216 480 1104 480
WIRE 2080 480 2080 192
WIRE 128 496 16 496
WIRE 272 496 128 496
WIRE 320 496 272 496
WIRE 16 528 16 496
WIRE 128 528 128 496
WIRE 272 528 272 496
WIRE 128 624 128 592
WIRE 272 624 272 592
WIRE 16 640 16 608
WIRE 976 688 976 640
WIRE 1216 720 1216 480
WIRE 1296 720 1216 720
WIRE 912 736 848 736
WIRE 1216 752 1216 720
WIRE 1296 784 1296 720
WIRE 112 816 112 768
WIRE 496 816 496 768
WIRE 624 816 624 768
WIRE 16 832 16 800
WIRE 112 832 16 832
WIRE 224 832 176 832
WIRE 256 832 224 832
WIRE 368 832 336 832
WIRE 432 832 368 832
WIRE 496 832 432 832
WIRE 624 832 560 832
WIRE 736 832 688 832
WIRE 848 832 848 736
WIRE 848 832 816 832
WIRE 976 832 976 784
WIRE 1040 832 976 832
WIRE 1168 832 1120 832
WIRE 16 880 16 832
WIRE 112 880 112 848
WIRE 496 880 496 848
WIRE 624 880 624 848
WIRE 976 880 976 832
WIRE 1216 880 1216 848
WIRE 1296 880 1296 848
WIRE 1296 880 1216 880
WIRE 224 928 224 832
WIRE 272 928 224 928
WIRE 368 928 368 832
WIRE 368 928 336 928
WIRE 848 928 848 832
WIRE 912 928 848 928
WIRE 1216 928 1216 880
WIRE 16 992 16 960
WIRE 976 1024 976 976
WIRE 1232 1120 1232 1072
WIRE 1232 1248 1232 1200
WIRE 1280 1248 1232 1248
WIRE 2080 1248 2080 544
WIRE 2080 1248 1472 1248
WIRE 432 1296 432 832
WIRE 1280 1344 496 1344
WIRE 2128 1344 2128 336
WIRE 2128 1344 1472 1344
WIRE 432 1440 432 1392
FLAG 64 336 0
FLAG 16 992 0
FLAG 16 800 IN
FLAG 1216 928 0
FLAG 672 320 0
FLAG 800 320 0
FLAG 2240 384 0
FLAG 2224 192 OUT1
IOPIN 2224 192 Out
FLAG 64 160 VDD
FLAG 976 640 VDD2
FLAG 976 1024 0
FLAG 112 880 0
FLAG 112 768 VDD2
FLAG 496 880 0
FLAG 496 768 VDD2
FLAG 624 880 0
FLAG 624 768 VDD2
FLAG 432 1440 0
FLAG 1232 1072 VDD2
FLAG 16 640 0
FLAG 320 496 VDD2
FLAG 128 624 0
FLAG 272 624 0
FLAG 560 320 0
FLAG 448 320 0
FLAG 336 320 0
FLAG 2240 96 0
FLAG 2224 -96 OUT2
IOPIN 2224 -96 Out
SYMBOL voltage 64 208 R0
WINDOW 123 0 0 Left 0
WINDOW 39 24 105 Left 2
WINDOW 0 37 39 Left 2
WINDOW 3 37 67 Left 2
SYMATTR InstName V1
SYMATTR Value 15
SYMBOL voltage 16 864 R0
WINDOW 123 0 0 Left 0
WINDOW 39 0 0 Left 0
WINDOW 0 41 67 Left 2
WINDOW 3 -361 80 Invisible 2
SYMATTR InstName V2
SYMATTR Value PULSE(0 12 0 {0.01/Fs} {0.01/Fs} {PulseWidth/Fs} {1/Fs})
SYMBOL ind 1200 288 M180
WINDOW 0 39 84 Left 2
WINDOW 3 38 40 Left 2
SYMATTR InstName L1
SYMATTR Value 250µ
SYMATTR SpiceLine Rser=0.07
SYMATTR Type ind
SYMBOL cap 1008 288 R180
WINDOW 0 52 47 Left 2
WINDOW 3 43 22 Left 2
SYMATTR InstName C1
SYMATTR Value 4.7n
SYMBOL res 1088 208 R0
WINDOW 0 -54 34 Left 2
WINDOW 3 -54 67 Left 2
SYMATTR InstName R2
SYMATTR Value 470
SYMBOL nmos 1168 752 R0
WINDOW 3 56 72 Invisible 2
SYMATTR Value BSC100N06LS3
SYMATTR InstName M1
SYMBOL cap 656 224 R0
SYMATTR InstName C2
SYMATTR Value 22µ
SYMBOL schottky 1120 432 R180
WINDOW 0 44 32 Left 2
WINDOW 3 131 -1 Right 2
SYMATTR InstName D2
SYMATTR Value 1N5819
SYMBOL cap 784 224 R0
SYMATTR InstName C3
SYMATTR Value 100n
SYMBOL schottky 1312 848 R180
WINDOW 0 -41 46 Left 2
WINDOW 3 -110 22 Left 2
SYMATTR InstName D1
SYMATTR Value 1N5819
SYMBOL ind 1440 176 M0
WINDOW 0 41 25 Left 2
WINDOW 3 41 71 Left 2
SYMATTR InstName L2
SYMATTR Value 250µ
SYMATTR SpiceLine Rser=0.07
SYMATTR Type ind
SYMBOL schottky 1536 208 R270
WINDOW 0 32 32 VTop 2
WINDOW 3 0 32 VBottom 2
SYMATTR InstName D3
SYMATTR Value 1N5819
SYMBOL cap 1680 224 R0
SYMATTR InstName C4
SYMATTR Value 220µ
SYMBOL cap 1808 224 R0
SYMATTR InstName C5
SYMATTR Value 220n
SYMBOL res 1968 208 R0
SYMATTR InstName R4
SYMATTR Value 1K
SYMBOL npn 912 688 R0
SYMATTR InstName Q1
SYMATTR Value BC337-40
SYMBOL pnp 912 976 M180
SYMATTR InstName Q2
SYMATTR Value BC327-40
SYMBOL res 1136 816 R90
WINDOW 0 0 56 VBottom 2
WINDOW 3 32 56 VTop 2
SYMATTR InstName R5
SYMATTR Value 10
SYMBOL res 832 816 R90
WINDOW 0 0 56 VBottom 2
WINDOW 3 32 56 VTop 2
SYMATTR InstName R1
SYMATTR Value 100
SYMBOL MyLib\\Digital\\NOT_CD40106B 112 800 R0
WINDOW 38 16 64 Invisible 2
SYMATTR InstName U1
SYMBOL res 352 816 R90
WINDOW 0 0 56 VBottom 2
WINDOW 3 32 56 VTop 2
SYMATTR InstName R3
SYMATTR Value 1k
SYMBOL diode 336 912 R90
WINDOW 0 0 32 VBottom 2
WINDOW 3 32 32 VTop 2
SYMATTR InstName D5
SYMATTR Value 1N4148
SYMBOL MyLib\\Digital\\NOT_CD40106B 496 800 R0
WINDOW 38 16 64 Invisible 2
SYMATTR InstName U2
SYMBOL MyLib\\Digital\\NOT_CD40106B 624 800 R0
WINDOW 38 16 64 Invisible 2
SYMATTR InstName U3
SYMBOL npn 496 1296 M0
SYMATTR InstName Q3
SYMATTR Value BC337-40
SYMBOL res 1248 1216 R180
WINDOW 0 48 64 Left 2
WINDOW 3 48 40 Left 2
SYMATTR InstName R6
SYMATTR Value 220
SYMBOL Optos\\PC817C 1376 1296 M0
SYMATTR InstName U4
SYMBOL zener 2096 544 R180
WINDOW 0 49 40 Left 2
WINDOW 3 49 16 Left 2
SYMATTR InstName D6
SYMATTR Value MMBZ12VALY
SYMBOL voltage 16 512 R0
WINDOW 0 42 39 Left 2
WINDOW 3 46 69 Left 2
WINDOW 123 0 0 Left 0
WINDOW 39 0 0 Left 0
SYMATTR InstName V3
SYMATTR Value 12
SYMBOL cap 112 528 R0
SYMATTR InstName C6
SYMATTR Value 22µ
SYMBOL cap 256 528 R0
SYMATTR InstName C7
SYMATTR Value 100n
SYMBOL cap 544 224 R0
SYMATTR InstName C8
SYMATTR Value 22µ
SYMBOL cap 432 224 R0
SYMATTR InstName C9
SYMATTR Value 22µ
SYMBOL cap 320 224 R0
SYMATTR InstName C10
SYMATTR Value 22µ
SYMBOL ind 1440 -112 M0
WINDOW 0 41 25 Left 2
WINDOW 3 41 71 Left 2
SYMATTR InstName L3
SYMATTR Value 250µ
SYMATTR SpiceLine Rser=0.07
SYMATTR Type ind
SYMBOL schottky 1536 -80 R270
WINDOW 0 32 32 VTop 2
WINDOW 3 0 32 VBottom 2
SYMATTR InstName D4
SYMATTR Value 1N5819
SYMBOL cap 1680 -64 R0
SYMATTR InstName C11
SYMATTR Value 220µ
SYMBOL cap 1808 -64 R0
SYMATTR InstName C12
SYMATTR Value 220n
SYMBOL res 1968 -80 R0
SYMATTR InstName R7
SYMATTR Value 1K
SYMBOL res 272 176 R90
WINDOW 0 0 56 VBottom 2
WINDOW 3 -61 -17 VTop 2
SYMATTR InstName NTC
SYMATTR Value R={ if(time<2m, 5, 0.5) }
TEXT -16 1088 Left 2 !.tran 10m
TEXT 1264 368 Left 2 !K1 L1 L2 L3 1
TEXT -16 1112 Left 2 !.param Fs=22KHz PulseWidth=0.5
TEXT 160 232 Left 2 ;Soft Start
