Version 4.1
SHEET 1 1160 680
WIRE 352 -16 208 -16
WIRE 672 -16 352 -16
WIRE 704 -16 672 -16
WIRE 896 -16 784 -16
WIRE 1024 -16 1024 -48
WIRE 1024 -16 976 -16
WIRE 352 80 352 -16
WIRE 1024 96 1024 -16
WIRE 672 128 672 -16
WIRE 656 144 528 144
WIRE 528 160 528 144
WIRE 352 176 352 144
WIRE 656 176 624 176
WIRE 528 256 528 240
WIRE 624 256 624 176
WIRE 624 256 528 256
WIRE 352 288 352 256
WIRE 352 288 208 288
WIRE 672 288 672 192
WIRE 672 288 352 288
WIRE 1024 288 1024 176
WIRE 1024 288 672 288
WIRE 1024 320 1024 288
FLAG 1024 320 0
FLAG 1024 -48 L1
SYMBOL voltage 1024 192 R180
WINDOW 123 0 0 Left 0
WINDOW 39 0 0 Left 0
WINDOW 3 24 96 Invisible 2
SYMATTR Value SINE(0 310 50)
SYMATTR InstName V1
SYMBOL cap 336 80 R0
SYMATTR InstName C1
SYMATTR Value 100n
SYMATTR SpiceLine V=400
SYMBOL res 336 160 R0
SYMATTR InstName R1
SYMATTR Value 120
SYMATTR SpiceLine pwr=2
SYMBOL SpecialFunctions\\varistor 688 224 M180
WINDOW 0 6 90 Left 2
SYMATTR InstName A1
SYMBOL voltage 528 144 R0
WINDOW 0 37 47 Left 2
WINDOW 3 36 71 Left 2
WINDOW 123 0 0 Left 0
WINDOW 39 0 0 Left 0
SYMATTR InstName V2
SYMATTR Value 400
SYMBOL res 800 -32 R90
WINDOW 0 0 56 VBottom 2
WINDOW 3 32 56 Invisible 2
SYMATTR InstName Fuse
SYMATTR Value 0
SYMBOL res 992 -32 R90
WINDOW 0 0 56 VBottom 2
WINDOW 3 32 56 VTop 2
SYMATTR InstName Load
SYMATTR Value 500
TEXT 352 344 Left 2 !.tran 40m
TEXT 384 144 Left 2 ;400V
TEXT 384 248 Left 2 ;2W
TEXT 688 160 Left 2 ;MOV\n20D471K\n470Vrms
