Version 4.1
SHEET 1 880 680
WIRE -432 64 -752 64
WIRE -432 96 -432 64
WIRE -752 128 -752 64
WIRE -432 176 -432 160
WIRE -368 176 -432 176
WIRE -432 208 -432 176
WIRE -752 304 -752 208
WIRE -432 304 -432 288
WIRE -432 304 -752 304
WIRE -752 336 -752 304
FLAG -752 336 0
FLAG -368 176 OUT
SYMBOL voltage -752 112 R0
WINDOW 123 0 0 Left 0
WINDOW 39 0 0 Left 0
SYMATTR InstName V2
SYMATTR Value SINE(0 50 50)
SYMBOL res -448 192 R0
SYMATTR InstName R1
SYMATTR Value 10K
SYMBOL MyLib\\DIAC\\Alexander_DB3 -464 96 R0
WINDOW 38 80 44 Left 2
SYMATTR InstName U1
TEXT -160 64 Left 2 !.tran 40m
