Version 4.1
SHEET 1 880 680
WIRE -432 64 -752 64
WIRE -432 96 -432 64
WIRE -752 128 -752 64
WIRE -432 192 -432 160
WIRE -352 192 -432 192
WIRE -432 224 -432 192
WIRE -752 336 -752 208
WIRE -432 336 -432 304
WIRE -432 336 -752 336
WIRE -752 368 -752 336
FLAG -752 368 0
FLAG -352 192 OUT
SYMBOL voltage -752 112 R0
WINDOW 123 0 0 Left 0
WINDOW 39 0 0 Left 0
SYMATTR InstName V2
SYMATTR Value SINE(0 5 50)
SYMBOL res -448 208 R0
SYMATTR InstName R1
SYMATTR Value 1K
SYMBOL diode -448 96 R0
SYMATTR InstName D1
SYMATTR Value 1N4007
TEXT -704 376 Left 2 !.tran 40m
TEXT -704 416 Left 2 !.inc Diode.lib
