Version 4.1
SHEET 1 1452 680
WIRE 352 96 272 96
WIRE 496 96 416 96
WIRE 608 96 496 96
WIRE 704 96 608 96
WIRE 864 96 704 96
WIRE 272 128 272 96
WIRE 496 144 496 96
WIRE 608 144 608 96
WIRE 864 160 864 96
WIRE 272 256 272 208
WIRE 496 256 496 208
WIRE 608 256 608 208
WIRE 704 288 704 96
WIRE 736 288 704 288
WIRE 1088 288 992 288
WIRE 1168 288 1088 288
WIRE 1264 288 1168 288
WIRE 1328 288 1264 288
WIRE 1264 320 1264 288
WIRE 1088 336 1088 288
WIRE 1168 336 1168 288
WIRE 1088 448 1088 400
WIRE 1168 448 1168 400
WIRE 1264 448 1264 400
WIRE 864 528 864 416
FLAG 272 256 0
FLAG 1328 288 OUT
IOPIN 1328 288 Out
FLAG 1168 448 0
FLAG 1088 448 0
FLAG 1264 448 0
FLAG 496 256 0
FLAG 864 528 0
FLAG 608 256 0
SYMBOL voltage 272 112 R0
WINDOW 0 51 53 Bottom 2
WINDOW 3 242 -108 Invisible 2
WINDOW 123 0 0 Left 0
WINDOW 39 0 0 Left 0
SYMATTR InstName V2
SYMATTR Value PULSE(4.9 5.1 0 {T/Fs} {T/Fs} 1p {1/Fs})
SYMBOL FerriteBead 384 96 R90
WINDOW 0 -16 0 VBottom 2
SYMATTR InstName L1
SYMATTR Value 5µ
SYMATTR SpiceLine Ipk=1 Rser=0.3 Rpar=1120 Cpar=600f mfg="Würth Elektronik" pn="782853102 WE-CBA 0805"
SYMBOL cap 1152 336 R0
SYMATTR InstName C1
SYMATTR Value 2.2µ
SYMATTR SpiceLine Rser=0.020
SYMBOL cap 1072 336 R0
SYMATTR InstName C2
SYMATTR Value 100n
SYMATTR SpiceLine Rser=0.020
SYMBOL res 1248 304 R0
SYMATTR InstName R1
SYMATTR Value 100
SYMBOL cap 480 144 R0
SYMATTR InstName C3
SYMATTR Value 100n
SYMATTR SpiceLine Rser=0.020
SYMBOL PowerProducts\\ADP150-3.3 864 288 R0
SYMATTR InstName U1
SYMBOL cap 592 144 R0
SYMATTR InstName C4
SYMATTR Value 22µ
SYMATTR SpiceLine Rser=0.020
TEXT 264 368 Left 2 !.tran 1m
TEXT 264 392 Left 2 !.param Fs=150k T=0.5
