Version 4.1
SHEET 1 908 680
WIRE 576 64 576 32
WIRE 272 80 272 48
WIRE 544 80 272 80
WIRE 720 96 608 96
WIRE 784 96 720 96
WIRE 544 112 512 112
WIRE 112 144 112 112
WIRE 272 144 272 80
WIRE 576 160 576 128
WIRE 512 240 512 112
WIRE 720 240 720 96
WIRE 720 240 512 240
WIRE 112 256 112 224
WIRE 272 256 272 224
FLAG 112 256 0
FLAG 112 112 VCC
FLAG 272 256 0
FLAG 576 160 0
FLAG 576 32 VCC
FLAG 784 96 OUT
IOPIN 784 96 Out
FLAG 272 48 IN
SYMBOL voltage 112 128 R0
WINDOW 123 0 0 Left 0
WINDOW 39 0 0 Left 0
WINDOW 0 43 50 Left 2
WINDOW 3 41 74 Left 2
SYMATTR InstName V1
SYMATTR Value 5
SYMBOL voltage 272 128 R0
WINDOW 123 0 0 Left 0
WINDOW 39 0 0 Left 0
WINDOW 0 42 49 Left 2
WINDOW 3 36 81 Left 2
SYMATTR InstName V2
SYMATTR Value SINE(0 5 50)
SYMBOL sym\\MyLib\\OpAmp\\LM358 576 32 R0
SYMATTR InstName U2
TEXT 96 312 Left 2 !.tran 100m
