Version 4.1
SHEET 1 880 680
WIRE 384 -16 304 -16
WIRE 576 -16 464 -16
WIRE 304 64 304 -16
WIRE 256 128 192 128
WIRE 576 128 576 -16
WIRE 192 160 192 128
WIRE 192 272 192 240
WIRE 304 272 304 128
WIRE 304 272 192 272
WIRE 304 320 304 272
WIRE 576 320 576 208
WIRE 576 320 304 320
WIRE 576 368 576 320
FLAG 576 368 0
SYMBOL voltage 576 224 R180
WINDOW 123 0 0 Left 0
WINDOW 39 0 0 Left 0
WINDOW 3 -47 -16 VRight 2
SYMATTR Value SINE(0 310 50)
SYMATTR InstName V1
SYMBOL res 480 -32 R90
WINDOW 0 0 56 VBottom 2
WINDOW 3 32 56 VTop 2
SYMATTR InstName LOAD
SYMATTR Value 500
SYMBOL voltage 192 144 R0
WINDOW 123 0 0 Left 0
WINDOW 39 0 0 Left 0
WINDOW 0 45 53 Left 2
WINDOW 3 -52 -173 VRight 2
SYMATTR InstName V2
SYMATTR Value PULSE(0 12 2.5m 1n 1n 100u 10m)
SYMBOL MyLib\\TRIAC\\TRIAC_ST 272 64 R0
WINDOW 38 80 44 Left 2
SYMATTR InstName U2
TEXT 216 368 Left 2 !.tran 40m
