Version 4.1
SHEET 1 880 680
WIRE 0 112 0 80
WIRE 240 112 0 112
WIRE 416 112 416 80
WIRE 416 112 320 112
WIRE 0 176 0 112
WIRE 416 192 416 112
WIRE 0 336 0 256
WIRE 416 336 416 256
WIRE 416 336 0 336
WIRE 0 368 0 336
FLAG 0 368 0
FLAG 0 80 IN
FLAG 416 80 OUT
SYMBOL voltage 0 160 R0
WINDOW 123 0 0 Left 0
WINDOW 39 0 0 Left 0
SYMATTR InstName V1
SYMATTR Value SINE(0 15 50)
SYMBOL res 336 96 R90
WINDOW 0 0 56 VBottom 2
WINDOW 3 32 56 VTop 2
SYMATTR InstName R1
SYMATTR Value 10
SYMBOL MyLib\\Diode_TVS\\SMBJ3.3CA 400 192 R0
SYMATTR InstName U1
TEXT 48 24 Left 2 !.tran 40m
