Version 4.1
SHEET 1 880 680
WIRE -176 32 -224 32
WIRE 0 32 -96 32
WIRE 240 32 80 32
WIRE 560 32 240 32
WIRE 240 128 240 32
WIRE 560 128 560 32
WIRE 224 144 128 144
WIRE -224 176 -224 32
WIRE 224 176 192 176
WIRE 192 224 192 176
WIRE 192 224 128 224
WIRE 240 224 240 192
WIRE 560 224 560 208
WIRE 560 224 448 224
WIRE 688 224 560 224
WIRE 448 240 448 224
WIRE 560 240 560 224
WIRE 448 352 448 304
WIRE 560 352 560 320
WIRE 560 352 448 352
WIRE -224 400 -224 256
WIRE 240 400 240 304
WIRE 240 400 -224 400
WIRE 560 400 560 352
WIRE 560 400 240 400
WIRE -224 432 -224 400
FLAG -224 432 0
FLAG 688 224 OUT
IOPIN 688 224 Out
SYMBOL voltage -224 160 R0
WINDOW 3 -52 -33 VRight 2
WINDOW 123 0 0 Left 0
WINDOW 39 0 0 Left 0
WINDOW 0 39 29 Left 2
SYMATTR Value SINE(0 310 50)
SYMATTR InstName V1
SYMBOL SpecialFunctions\\varistor 256 224 M180
WINDOW 0 15 99 Left 2
SYMATTR InstName A1
SYMBOL res 544 112 R0
SYMATTR InstName R1
SYMATTR Value 10k
SYMBOL voltage 128 128 R0
WINDOW 0 -70 48 Left 2
WINDOW 3 -81 78 Left 2
WINDOW 123 0 0 Left 0
WINDOW 39 0 0 Left 0
SYMATTR InstName V3
SYMATTR Value 470
SYMBOL res 224 208 R0
SYMATTR InstName R2
SYMATTR Value 0.01
SYMBOL voltage -80 32 R90
WINDOW 0 49 67 VLeft 2
WINDOW 3 -57 -201 VRight 2
WINDOW 123 0 0 Left 0
WINDOW 39 0 0 Left 0
SYMATTR InstName V2
SYMATTR Value PULSE(0 10000 4m 1n 1n 1u 10m 4)
SYMBOL res 544 224 R0
SYMATTR InstName R3
SYMATTR Value 47k
SYMBOL TVSdiode 432 240 R0
WINDOW 0 41 18 Left 2
WINDOW 3 -24 -20 VRight 2
SYMATTR InstName D1
SYMATTR Value SMBJ24CA
SYMBOL res 96 16 R90
WINDOW 0 56 55 VBottom 2
WINDOW 3 62 56 Invisible 2
SYMATTR InstName Fuse
SYMATTR Value 0
TEXT -8 464 Left 2 !.tran 40m
TEXT 272 160 Left 2 ;MOV\n470V
TEXT 472 288 Left 2 ;24V
TEXT -184 216 Left 2 ;220V(rms)\n310V(peak)
