Version 4.1
SHEET 1 1692 1044
WIRE 336 -320 336 -384
WIRE -496 -192 -496 -208
WIRE -368 -192 -496 -192
WIRE -128 -192 -288 -192
WIRE 0 -192 -128 -192
WIRE 176 -192 64 -192
WIRE 336 -192 336 -240
WIRE 336 -192 304 -192
WIRE -496 -176 -496 -192
WIRE -128 -160 -128 -192
WIRE 752 -160 752 -208
WIRE -144 -144 -224 -144
WIRE 176 -128 128 -128
WIRE 336 -128 304 -128
WIRE -144 -112 -176 -112
WIRE -176 -64 -176 -112
WIRE -176 -64 -224 -64
WIRE -496 -32 -496 -96
WIRE -128 -32 -128 -96
WIRE -128 -32 -496 -32
WIRE 0 -32 -128 -32
WIRE 128 -32 128 -128
WIRE 128 -32 80 -32
WIRE 752 -32 752 -80
WIRE -496 0 -496 -32
WIRE -496 160 -496 144
WIRE -384 160 -496 160
WIRE -128 160 -304 160
WIRE 0 160 -128 160
WIRE 176 160 64 160
WIRE 336 160 336 -128
WIRE 336 160 304 160
WIRE -496 192 -496 160
WIRE -128 192 -128 160
WIRE -144 208 -224 208
WIRE 176 224 128 224
WIRE 336 224 304 224
WIRE -144 240 -176 240
WIRE 720 272 720 224
WIRE -176 288 -176 240
WIRE -176 288 -224 288
WIRE -496 320 -496 272
WIRE -128 320 -128 256
WIRE -128 320 -496 320
WIRE 0 320 -128 320
WIRE 128 320 128 224
WIRE 128 320 80 320
WIRE -496 352 -496 320
WIRE 608 384 608 336
WIRE 720 400 720 352
WIRE 608 496 608 464
WIRE 720 496 720 464
WIRE 720 496 608 496
WIRE 832 496 720 496
WIRE -496 512 -496 496
WIRE -384 512 -496 512
WIRE -128 512 -304 512
WIRE 0 512 -128 512
WIRE 176 512 64 512
WIRE 336 512 336 224
WIRE 336 512 304 512
WIRE 608 528 608 496
WIRE -496 544 -496 512
WIRE -128 544 -128 512
WIRE -144 560 -224 560
WIRE 176 576 144 576
WIRE 384 576 304 576
WIRE 496 576 384 576
WIRE 544 576 496 576
WIRE -144 592 -176 592
WIRE 496 608 496 576
WIRE 384 624 384 576
WIRE -176 640 -176 592
WIRE -176 640 -224 640
WIRE -496 672 -496 624
WIRE -128 672 -128 608
WIRE -128 672 -496 672
WIRE 0 672 -128 672
WIRE 144 672 144 576
WIRE 144 672 80 672
WIRE 608 672 608 624
WIRE -496 704 -496 672
WIRE 384 720 384 688
WIRE 496 720 496 688
FLAG -496 0 0
FLAG 752 -32 0
FLAG 752 -208 VCC
FLAG 336 -384 VCC
FLAG 608 672 0
FLAG -496 352 0
FLAG -496 704 0
FLAG -496 -208 L1
FLAG -496 144 L2
FLAG -496 496 L3
FLAG 608 336 VCC
FLAG 832 496 OUT
IOPIN 832 496 Out
FLAG 720 224 VCC
FLAG 496 720 0
FLAG 384 720 0
SYMBOL res 320 -336 R0
SYMATTR InstName R1
SYMATTR Value 22
SYMBOL voltage -496 -80 R180
WINDOW 123 0 0 Left 0
WINDOW 39 0 0 Left 0
WINDOW 0 -65 72 Left 2
WINDOW 3 54 -107 Invisible 2
SYMATTR InstName V1
SYMATTR Value SINE(0 310 50 20m 0 0 3)
SYMBOL voltage 752 -176 R0
WINDOW 123 0 0 Left 0
WINDOW 39 0 0 Left 0
WINDOW 0 42 39 Left 2
WINDOW 3 48 67 Left 2
SYMATTR InstName V2
SYMATTR Value 3.3
SYMBOL res 96 -48 R90
WINDOW 0 -6 58 VBottom 2
WINDOW 3 39 58 VTop 2
SYMATTR InstName R5
SYMATTR Value 1k
SYMATTR SpiceLine pwr=2
SYMBOL cap 368 624 R0
WINDOW 0 -40 26 Left 2
WINDOW 3 -42 50 Left 2
SYMATTR InstName C1
SYMATTR Value 10µ
SYMBOL npn 544 528 R0
SYMATTR InstName Q1
SYMBOL res 512 704 R180
WINDOW 0 42 76 Left 2
WINDOW 3 41 49 Left 2
SYMATTR InstName R9
SYMATTR Value 33k
SYMBOL LED 704 400 R0
WINDOW 0 -57 21 Left 2
WINDOW 3 -32 42 Left 2
SYMATTR InstName LED
SYMBOL voltage -496 288 R180
WINDOW 123 0 0 Left 0
WINDOW 39 0 0 Left 0
WINDOW 0 -69 74 Left 2
WINDOW 3 52 -89 Invisible 2
SYMATTR InstName V3
SYMATTR Value SINE(0 310 50 0 0 120)
SYMBOL voltage -496 640 R180
WINDOW 123 0 0 Left 0
WINDOW 39 0 0 Left 0
WINDOW 0 -63 80 Left 2
WINDOW 3 50 -62 Invisible 2
SYMATTR InstName V4
SYMATTR Value SINE(0 310 50 0 0 240)
SYMBOL res 592 368 R0
WINDOW 0 -46 51 Left 2
WINDOW 3 -71 80 Left 2
SYMATTR InstName R7
SYMATTR Value 4.7k
SYMBOL res 704 256 R0
SYMATTR InstName R17
SYMATTR Value 1k
SYMBOL res -272 -208 R90
WINDOW 0 -6 56 VBottom 2
WINDOW 3 -31 58 Invisible 2
SYMATTR InstName Fuse1
SYMATTR Value 0
SYMBOL res -288 144 R90
WINDOW 0 -9 61 VBottom 2
WINDOW 3 -31 58 Invisible 2
SYMATTR InstName Fuse2
SYMATTR Value 0
SYMBOL res -288 496 R90
WINDOW 0 -9 54 VBottom 2
WINDOW 3 -31 58 Invisible 2
SYMATTR InstName Fuse3
SYMATTR Value 0
SYMBOL SpecialFunctions\\varistor -112 -64 M180
WINDOW 0 8 96 Left 2
SYMATTR InstName A1
SYMBOL voltage -224 -160 R0
WINDOW 0 -72 42 Left 2
WINDOW 3 -86 70 Left 2
WINDOW 123 0 0 Left 0
WINDOW 39 0 0 Left 0
SYMATTR InstName V5
SYMATTR Value 470
SYMBOL SpecialFunctions\\varistor -112 640 M180
WINDOW 0 8 96 Left 2
SYMATTR InstName A3
SYMBOL voltage -224 544 R0
WINDOW 0 -72 42 Left 2
WINDOW 3 -86 70 Left 2
WINDOW 123 0 0 Left 0
WINDOW 39 0 0 Left 0
SYMATTR InstName V7
SYMATTR Value 470
SYMBOL SpecialFunctions\\varistor -112 288 M180
WINDOW 0 8 96 Left 2
SYMATTR InstName A2
SYMBOL voltage -224 192 R0
WINDOW 0 -72 42 Left 2
WINDOW 3 -86 70 Left 2
WINDOW 123 0 0 Left 0
WINDOW 39 0 0 Left 0
SYMATTR InstName V6
SYMATTR Value 470
SYMBOL cap 64 -208 R90
WINDOW 0 0 32 VBottom 2
WINDOW 3 32 32 VTop 2
SYMATTR InstName C2
SYMATTR Value 47n
SYMATTR SpiceLine V=400
SYMBOL MyLib\\Opto\\LTV814 240 -160 R0
SYMATTR InstName U1
SYMBOL res 96 304 R90
WINDOW 0 -8 65 VBottom 2
WINDOW 3 46 64 VTop 2
SYMATTR InstName R2
SYMATTR Value 1k
SYMATTR SpiceLine pwr=2
SYMBOL cap 64 144 R90
WINDOW 0 0 32 VBottom 2
WINDOW 3 32 32 VTop 2
SYMATTR InstName C3
SYMATTR Value 47n
SYMATTR SpiceLine V=400
SYMBOL MyLib\\Opto\\LTV814 240 192 R0
SYMATTR InstName U2
SYMBOL res 96 656 R90
WINDOW 0 -4 64 VBottom 2
WINDOW 3 44 60 VTop 2
SYMATTR InstName R3
SYMATTR Value 1k
SYMATTR SpiceLine pwr=2
SYMBOL cap 64 496 R90
WINDOW 0 0 32 VBottom 2
WINDOW 3 32 32 VTop 2
SYMATTR InstName C4
SYMATTR Value 47n
SYMATTR SpiceLine V=400
SYMBOL MyLib\\Opto\\LTV814 240 544 R0
SYMATTR InstName U3
TEXT 600 -192 Left 2 !.tran 200m
TEXT -104 -136 Left 2 ;MOV\n470
TEXT -104 568 Left 2 ;MOV\n470
TEXT -104 216 Left 2 ;MOV\n470
TEXT -376 -160 Left 2 ;100mA
TEXT -392 192 Left 2 ;100mA
TEXT -392 544 Left 2 ;100mA
TEXT 8 -136 Left 2 ;400V
TEXT 8 216 Left 2 ;400V
TEXT 8 568 Left 2 ;400V
TEXT 16 32 Left 2 ;2W
TEXT 16 392 Left 2 ;2W
TEXT 16 736 Left 2 ;2W
