Version 4.1
SHEET 1 1116 680
WIRE -96 -128 -96 -144
WIRE 0 -128 -96 -128
WIRE 272 -128 0 -128
WIRE 784 -128 272 -128
WIRE -96 -96 -96 -128
WIRE 0 -96 0 -128
WIRE 272 -64 272 -128
WIRE 784 -64 784 -128
WIRE 0 0 0 -32
WIRE -96 32 -96 -16
WIRE 272 80 272 16
WIRE 416 80 272 80
WIRE 480 80 416 80
WIRE 784 80 784 16
WIRE 896 80 784 80
WIRE 992 80 896 80
WIRE 416 144 416 80
WIRE 272 208 272 80
WIRE 784 208 784 80
WIRE 416 256 416 224
WIRE 416 256 320 256
WIRE 896 256 896 80
WIRE 896 256 832 256
WIRE 416 288 416 256
WIRE 272 368 272 304
WIRE 784 368 784 304
WIRE 416 416 416 368
FLAG 272 368 0
FLAG -96 32 0
FLAG 480 80 OUT1
IOPIN 480 80 Out
FLAG -96 -144 IN
FLAG 416 416 0
FLAG 0 0 0
FLAG 784 368 0
FLAG 992 80 OUT2
IOPIN 992 80 Out
SYMBOL MyLib\\Regulator\\TL431 272 256 M0
SYMATTR InstName U1
SYMBOL res 256 -80 R0
SYMATTR InstName R1
SYMATTR Value 2.2k
SYMBOL voltage -96 -112 R0
WINDOW 0 -72 40 Left 2
WINDOW 3 -60 68 Left 2
WINDOW 123 0 0 Left 0
WINDOW 39 0 0 Left 0
SYMATTR InstName V1
SYMATTR Value 5
SYMBOL res 400 128 R0
SYMATTR InstName R2
SYMATTR Value 2.2k
SYMBOL res 400 272 R0
SYMATTR InstName R3
SYMATTR Value 1.8k
SYMBOL cap -16 -96 R0
WINDOW 0 47 30 Left 2
WINDOW 3 49 52 Left 2
SYMATTR InstName C1
SYMATTR Value 100n
SYMBOL MyLib\\Regulator\\TL431 784 256 M0
SYMATTR InstName U2
SYMBOL res 768 -80 R0
SYMATTR InstName R4
SYMATTR Value 2.2k
TEXT 128 320 Left 2 !.tran 10m
