Version 4.1
SHEET 1 1260 700
WIRE 256 -1184 256 -1216
WIRE 976 -1168 976 -1184
WIRE 608 -1152 432 -1152
WIRE 800 -1152 688 -1152
WIRE 944 -1152 800 -1152
WIRE 1104 -1136 1008 -1136
WIRE 1152 -1136 1104 -1136
WIRE 432 -1120 432 -1152
WIRE 912 -1120 720 -1120
WIRE 944 -1120 912 -1120
WIRE 976 -1088 976 -1104
WIRE 256 -1072 256 -1104
WIRE 256 -1072 192 -1072
WIRE 800 -1072 800 -1152
WIRE 192 -1056 192 -1072
WIRE 256 -1040 256 -1072
WIRE 432 -1008 432 -1040
WIRE 608 -1008 432 -1008
WIRE 720 -1008 720 -1120
WIRE 720 -1008 688 -1008
WIRE 912 -1008 912 -1120
WIRE 976 -1008 912 -1008
WIRE 1104 -1008 1104 -1136
WIRE 1104 -1008 1056 -1008
WIRE 800 -960 800 -992
WIRE 256 -928 256 -960
FLAG 256 -1216 VDD
FLAG 192 -1056 0
FLAG 1152 -1136 OUT
IOPIN 1152 -1136 Out
FLAG 976 -1088 VEE
FLAG 256 -928 VEE
FLAG 976 -1184 VDD
FLAG 800 -960 0
SYMBOL voltage 256 -1200 R0
WINDOW 123 0 0 Left 2
WINDOW 39 0 0 Left 2
WINDOW 0 38 43 Left 2
WINDOW 3 36 73 Left 2
SYMATTR InstName V1
SYMATTR Value 15
SYMBOL voltage 432 -1136 M0
WINDOW 123 24 146 Left 2
WINDOW 39 24 125 Left 2
WINDOW 0 -79 34 Left 2
WINDOW 3 -256 58 Invisible 2
SYMATTR InstName Vin
SYMATTR Value SINE(0V 1V 10KH)
SYMBOL res 1072 -992 M270
WINDOW 0 -29 62 VTop 2
WINDOW 3 -26 56 VBottom 2
SYMATTR InstName R2
SYMATTR Value 10k
SYMBOL voltage 256 -1056 R0
WINDOW 123 24 146 Left 2
WINDOW 39 24 125 Left 2
WINDOW 0 39 43 Left 2
WINDOW 3 37 71 Left 2
SYMATTR InstName V2
SYMATTR Value 15
SYMBOL MyLib\\OpAmp\\LM358 976 -1200 R0
SYMATTR InstName U1
SYMBOL res 704 -1024 R90
WINDOW 0 64 68 VBottom 2
WINDOW 3 63 73 VTop 2
SYMATTR InstName R3
SYMATTR Value 1k
SYMBOL res 704 -1168 R90
WINDOW 0 -30 63 VBottom 2
WINDOW 3 -31 67 VTop 2
SYMATTR InstName R4
SYMATTR Value 1k
SYMBOL res 784 -1088 R0
SYMATTR InstName R1
SYMATTR Value 10k
TEXT 400 -880 Left 2 !.tran 0.25m
