Version 4.1
SHEET 1 1304 1140
WIRE 736 -144 736 -176
WIRE 240 -128 240 -176
WIRE 736 -16 736 -64
WIRE -432 0 -480 0
WIRE -304 0 -352 0
WIRE -160 0 -224 0
WIRE 64 0 -160 0
WIRE 240 0 240 -48
WIRE 64 16 64 0
WIRE 320 16 320 -16
WIRE 576 16 576 -48
WIRE 576 112 576 96
WIRE 736 112 736 48
WIRE 736 112 576 112
WIRE 816 112 736 112
WIRE -928 128 -928 112
WIRE -864 128 -928 128
WIRE -560 128 -560 0
WIRE -560 128 -784 128
WIRE 64 128 64 80
WIRE 128 128 64 128
WIRE 320 128 320 96
WIRE 320 128 256 128
WIRE 576 144 576 112
WIRE -928 160 -928 128
WIRE -560 176 -560 128
WIRE -576 192 -656 192
WIRE -400 192 -432 192
WIRE -160 192 -160 0
WIRE -160 192 -320 192
WIRE 128 192 64 192
WIRE 384 192 256 192
WIRE 448 192 384 192
WIRE 512 192 448 192
WIRE -576 224 -608 224
WIRE 64 224 64 192
WIRE 384 224 384 192
WIRE 448 224 448 192
WIRE -608 272 -608 224
WIRE -608 272 -656 272
WIRE 576 288 576 240
WIRE -928 320 -928 240
WIRE -560 320 -560 240
WIRE -560 320 -928 320
WIRE -432 320 -432 192
WIRE -432 320 -560 320
WIRE 64 320 64 288
WIRE 64 320 -432 320
WIRE 384 336 384 288
WIRE 448 336 448 304
WIRE -928 352 -928 320
FLAG -928 352 0
FLAG 240 0 0
FLAG -928 112 L1
FLAG 240 -176 VCC
FLAG 576 288 0
FLAG 576 -48 VCC
FLAG 816 112 OUT
IOPIN 816 112 Out
FLAG 448 336 0
FLAG 384 336 0
FLAG 736 -176 VCC
FLAG 320 -16 VCC
SYMBOL res 432 208 R0
SYMATTR InstName R1
SYMATTR Value 33k
SYMBOL voltage -928 144 R0
WINDOW 123 0 0 Left 0
WINDOW 39 0 0 Left 0
WINDOW 0 39 36 Left 2
WINDOW 3 -57 -79 VRight 2
SYMATTR InstName V1
SYMATTR Value SINE(0 310 50 60m 0 0 10)
SYMBOL res -336 -16 R90
WINDOW 0 -29 70 VBottom 2
WINDOW 3 -31 64 VTop 2
SYMATTR InstName R2
SYMATTR Value 33k
SYMBOL voltage 240 -144 R0
WINDOW 123 0 0 Left 0
WINDOW 39 0 0 Left 0
WINDOW 0 -70 41 Left 2
WINDOW 3 -79 73 Left 2
SYMATTR InstName V2
SYMATTR Value 3.3
SYMBOL res -464 -16 R90
WINDOW 0 -27 67 VBottom 2
WINDOW 3 -30 61 VTop 2
SYMATTR InstName R3
SYMATTR Value 33k
SYMBOL res -320 16 R270
WINDOW 0 32 56 VTop 2
WINDOW 3 0 56 VBottom 2
SYMATTR InstName R4
SYMATTR Value 33k
SYMBOL res -304 176 R90
WINDOW 0 62 68 VBottom 2
WINDOW 3 56 63 VTop 2
SYMATTR InstName R5
SYMATTR Value 10k
SYMBOL cap 400 288 R180
WINDOW 0 24 56 Left 2
WINDOW 3 24 8 Left 2
SYMATTR InstName C1
SYMATTR Value 10µ
SYMBOL npn 512 144 R0
SYMATTR InstName Q1
SYMBOL res 304 0 R0
SYMATTR InstName R9
SYMATTR Value 33
SYMBOL LED 720 -16 R0
WINDOW 0 -64 20 Left 2
WINDOW 3 -36 45 Left 2
SYMATTR InstName LED
SYMBOL res 560 0 R0
SYMATTR InstName R7
SYMATTR Value 4.7k
SYMBOL res 720 -160 R0
SYMATTR InstName R10
SYMATTR Value 670
SYMBOL Contrib\\Wurth\\Optoelectronics\\Optocoupler\\WL-OCPT\\WL-OCPT_Series_354 192 160 R0
SYMATTR InstName Q3
SYMBOL res -768 112 R90
WINDOW 0 -27 67 VBottom 2
WINDOW 3 -30 61 VTop 2
SYMATTR InstName Fuse
SYMATTR Value 0
SYMBOL SpecialFunctions\\varistor -544 144 R0
SYMATTR InstName A1
SYMBOL voltage -656 176 R0
WINDOW 0 -68 44 Left 2
WINDOW 3 -83 70 Left 2
WINDOW 123 0 0 Left 0
WINDOW 39 0 0 Left 0
SYMATTR InstName V3
SYMATTR Value 470
SYMBOL zener 80 80 R180
WINDOW 0 -39 47 Left 2
WINDOW 3 -160 16 Left 2
SYMATTR InstName D1
SYMATTR Value UMZC6_8N
SYMBOL zener 48 224 R0
WINDOW 0 -49 12 Left 2
WINDOW 3 -174 39 Left 2
SYMATTR InstName D2
SYMATTR Value UMZC6_8N
TEXT 80 -168 Left 2 !.tran 400m
TEXT 160 248 Left 2 ;LTV814
TEXT -536 224 Left 2 ;MOV\n470V
TEXT -888 216 Left 2 ;220Vrms\n50Hz
