Version 4.1
SHEET 1 1468 1140
WIRE 1104 -96 1104 -128
WIRE 896 0 896 -32
WIRE 288 16 288 -16
WIRE 1104 32 1104 -16
WIRE 832 48 784 48
WIRE -528 128 -528 112
WIRE -464 128 -528 128
WIRE -160 128 -384 128
WIRE -48 128 -160 128
WIRE 128 128 16 128
WIRE 288 128 288 96
WIRE 288 128 256 128
WIRE 352 128 288 128
WIRE 496 128 432 128
WIRE 576 128 496 128
WIRE 784 128 784 48
WIRE 784 128 736 128
WIRE 896 128 896 96
WIRE 1104 128 1104 96
WIRE 1104 128 896 128
WIRE 1216 128 1104 128
WIRE -528 160 -528 128
WIRE 896 160 896 128
WIRE -160 176 -160 128
WIRE 496 176 496 128
WIRE -176 192 -256 192
WIRE 128 192 80 192
WIRE 288 192 256 192
WIRE 784 208 784 128
WIRE 832 208 784 208
WIRE -176 224 -208 224
WIRE 288 240 288 192
WIRE -208 272 -208 224
WIRE -208 272 -256 272
WIRE 496 288 496 240
WIRE 896 304 896 256
WIRE -528 320 -528 240
WIRE -160 320 -160 240
WIRE -160 320 -528 320
WIRE -48 320 -160 320
WIRE 80 320 80 192
WIRE 80 320 32 320
WIRE -528 352 -528 320
WIRE 896 480 896 432
WIRE 384 512 384 464
WIRE 576 528 576 128
WIRE 704 528 576 528
WIRE 832 528 784 528
WIRE 384 640 384 592
WIRE 896 640 896 576
WIRE 1040 640 896 640
WIRE 896 688 896 640
WIRE 896 800 896 752
WIRE 896 928 896 880
FLAG -528 352 0
FLAG 384 640 0
FLAG -528 112 L1
FLAG 384 464 VCC
FLAG 1216 128 OUT1
IOPIN 1216 128 Out
FLAG 496 288 0
FLAG 288 -16 VCC
FLAG 288 240 0
FLAG 896 -32 VCC
FLAG 896 304 0
FLAG 1104 -128 VCC
FLAG 1040 640 OUT2
IOPIN 1040 640 Out
FLAG 896 432 VCC
FLAG 896 928 0
SYMBOL voltage -528 144 R0
WINDOW 123 0 0 Left 0
WINDOW 39 0 0 Left 0
WINDOW 0 39 36 Left 2
WINDOW 3 -57 -79 VRight 2
SYMATTR InstName V1
SYMATTR Value SINE(0 310 50 60m 0 0 10)
SYMBOL voltage 384 496 R0
WINDOW 123 0 0 Left 0
WINDOW 39 0 0 Left 0
WINDOW 0 -70 41 Left 2
WINDOW 3 -79 73 Left 2
SYMATTR InstName V2
SYMATTR Value 3.3
SYMBOL res 48 304 R90
WINDOW 0 62 68 VBottom 2
WINDOW 3 56 63 VTop 2
SYMATTR InstName R5
SYMATTR Value 1k
SYMATTR SpiceLine pwr=0.25
SYMBOL cap 512 240 R180
WINDOW 0 42 36 Left 2
WINDOW 3 29 6 Left 2
SYMATTR InstName C1
SYMATTR Value 22µ
SYMBOL res 272 0 R0
SYMATTR InstName R9
SYMATTR Value 3.3k
SYMBOL LED 1088 32 R0
WINDOW 0 -64 20 Left 2
WINDOW 3 -36 45 Left 2
SYMATTR InstName LED1
SYMBOL res 1088 -112 R0
SYMATTR InstName R10
SYMATTR Value 1k
SYMBOL res -368 112 R90
WINDOW 0 -1 58 VBottom 2
WINDOW 3 -30 61 Invisible 2
SYMATTR InstName Fuse
SYMATTR Value 0.001
SYMBOL SpecialFunctions\\varistor -144 144 R0
WINDOW 0 6 46 Left 2
SYMATTR InstName A1
SYMBOL voltage -256 176 R0
WINDOW 0 -68 44 Left 2
WINDOW 3 -83 70 Left 2
WINDOW 123 0 0 Left 0
WINDOW 39 0 0 Left 0
SYMATTR InstName V3
SYMATTR Value 470
SYMBOL MyLib\\Opto\\LTV814 192 160 R0
SYMATTR InstName U1
SYMBOL cap 16 112 R90
WINDOW 0 0 32 VBottom 2
WINDOW 3 32 32 VTop 2
SYMATTR InstName C2
SYMATTR Value 47n
SYMATTR SpiceLine V=400 Irms=0 Rser=0.0564 Lser=11.638n mfg="Würth Elektronik" pn="890283325002CS WCAP-FTBP 15 x 18 x 11 x 5" type="Box"
SYMBOL pnp 832 256 M180
SYMATTR InstName Q2
SYMATTR Value BC327-40
SYMBOL npn 832 0 R0
SYMATTR InstName Q1
SYMATTR Value BC337-40
SYMBOL res 800 512 R90
WINDOW 0 0 56 VBottom 2
WINDOW 3 32 56 VTop 2
SYMATTR InstName R6
SYMATTR Value 100
SYMBOL res 448 112 R90
WINDOW 0 0 56 VBottom 2
WINDOW 3 32 56 VTop 2
SYMATTR InstName R1
SYMATTR Value 1k
SYMBOL LED 880 688 R0
WINDOW 0 -64 20 Left 2
WINDOW 3 -36 45 Left 2
SYMATTR InstName LED2
SYMBOL pnp 832 576 M180
SYMATTR InstName Q3
SYMATTR Value BC327-40
SYMBOL res 752 112 R90
WINDOW 0 0 56 VBottom 2
WINDOW 3 32 56 VTop 2
SYMATTR InstName R3
SYMATTR Value 100
SYMBOL res 880 784 R0
SYMATTR InstName R4
SYMATTR Value 1k
TEXT 224 472 Left 2 !.tran 400m
TEXT -136 224 Left 2 ;MOV\n470V
TEXT -488 216 Left 2 ;220Vrms\n50Hz
TEXT -40 184 Left 2 ;400V
