Version 4.1
SHEET 1 1468 1140
WIRE 720 -128 720 -176
WIRE 592 -16 592 -48
WIRE 720 0 720 -48
WIRE 288 16 288 -80
WIRE 592 112 592 64
WIRE 720 112 720 64
WIRE 720 112 592 112
WIRE 816 112 720 112
WIRE -528 128 -528 112
WIRE -320 128 -528 128
WIRE -160 128 -240 128
WIRE -48 128 -160 128
WIRE 128 128 16 128
WIRE 288 128 288 96
WIRE 288 128 256 128
WIRE 592 144 592 112
WIRE -528 160 -528 128
WIRE -160 176 -160 128
WIRE -176 192 -256 192
WIRE 128 192 80 192
WIRE 352 192 256 192
WIRE 464 192 352 192
WIRE 528 192 464 192
WIRE -176 224 -208 224
WIRE 464 224 464 192
WIRE 352 240 352 192
WIRE -208 272 -208 224
WIRE -208 272 -256 272
WIRE 592 288 592 240
WIRE -528 320 -528 240
WIRE -160 320 -160 240
WIRE -160 320 -528 320
WIRE -48 320 -160 320
WIRE 80 320 80 192
WIRE 80 320 32 320
WIRE 352 336 352 304
WIRE 800 336 800 288
WIRE -528 352 -528 320
WIRE 464 352 464 304
WIRE 800 464 800 416
FLAG -528 352 0
FLAG 800 464 0
FLAG -528 112 L1
FLAG 800 288 VCC
FLAG 816 112 OUT
IOPIN 816 112 Out
FLAG 288 -80 VCC
FLAG 592 -48 VCC
FLAG 592 288 0
FLAG 720 -176 VCC
FLAG 464 352 0
FLAG 352 336 0
SYMBOL voltage -528 144 R0
WINDOW 123 0 0 Left 0
WINDOW 39 0 0 Left 0
WINDOW 0 39 43 Left 2
WINDOW 3 -57 -79 Invisible 2
SYMATTR InstName V1
SYMATTR Value SINE(0 310 50 60m 0 0 10)
SYMBOL voltage 800 320 R0
WINDOW 123 0 0 Left 0
WINDOW 39 0 0 Left 0
WINDOW 0 -70 41 Left 2
WINDOW 3 -79 73 Left 2
SYMATTR InstName V2
SYMATTR Value 3.3
SYMBOL res 48 304 R90
WINDOW 0 -14 68 VBottom 2
WINDOW 3 41 76 VTop 2
SYMATTR InstName R1
SYMATTR Value 1k
SYMATTR SpiceLine pwr=2
SYMBOL res 272 0 R0
SYMATTR InstName R2
SYMATTR Value 270
SYMBOL LED 704 0 R0
WINDOW 0 -64 20 Left 2
WINDOW 3 -36 45 Left 2
SYMATTR InstName LED
SYMBOL res 576 -32 R0
WINDOW 0 -48 43 Left 2
WINDOW 3 -57 65 Left 2
SYMATTR InstName R4
SYMATTR Value 10k
SYMBOL res -224 112 R90
WINDOW 0 -1 58 VBottom 2
WINDOW 3 -30 61 Invisible 2
SYMATTR InstName Fuse
SYMATTR Value 0.001
SYMBOL SpecialFunctions\\varistor -144 144 R0
WINDOW 0 6 46 Left 2
SYMATTR InstName A1
SYMBOL voltage -256 176 R0
WINDOW 0 -68 44 Left 2
WINDOW 3 -83 70 Left 2
WINDOW 123 0 0 Left 0
WINDOW 39 0 0 Left 0
SYMATTR InstName V3
SYMATTR Value 470
SYMBOL MyLib\\Opto\\LTV814 192 160 R0
SYMATTR InstName U1
SYMBOL cap 16 112 R90
WINDOW 0 0 32 VBottom 2
WINDOW 3 32 32 VTop 2
SYMATTR InstName C1
SYMATTR Value 47n
SYMATTR SpiceLine V=400 Irms=0 Rser=0.0564 Lser=11.638n mfg="Würth Elektronik" pn="890283325002CS WCAP-FTBP 15 x 18 x 11 x 5" type="Box"
SYMBOL npn 528 144 R0
SYMATTR InstName Q1
SYMATTR Value BC337-40
SYMBOL res 704 -144 R0
SYMATTR InstName R5
SYMATTR Value 1k
SYMBOL res 448 208 R0
SYMATTR InstName R3
SYMATTR Value 33k
SYMBOL cap 336 240 R0
SYMATTR InstName C2
SYMATTR Value 10µ
TEXT 640 448 Left 2 !.tran 400m
TEXT -136 224 Left 2 ;MOV\n470V
TEXT -488 216 Left 2 ;220Vrms\n50Hz
TEXT -40 184 Left 2 ;400V
TEXT -320 160 Left 2 ;100mA
TEXT -40 384 Left 2 ;2W
