Version 4.1
SHEET 1 1132 824
WIRE -96 -96 -464 -96
WIRE -64 -96 -96 -96
WIRE 112 -96 16 -96
WIRE 288 -96 288 -128
WIRE 288 -96 192 -96
WIRE -464 -48 -464 -96
WIRE -368 -48 -464 -48
WIRE -368 -32 -368 -48
WIRE 288 -32 288 -96
WIRE -464 -16 -464 -48
WIRE -96 -16 -96 -96
WIRE -112 0 -176 0
WIRE -112 32 -128 32
WIRE -608 48 -608 16
WIRE -512 48 -608 48
WIRE -608 80 -608 48
WIRE -368 80 -368 48
WIRE -128 80 -128 32
WIRE -128 80 -176 80
WIRE -464 160 -464 48
WIRE -368 160 -368 144
WIRE -368 160 -464 160
WIRE -608 208 -608 160
WIRE -464 208 -464 160
WIRE -464 208 -608 208
WIRE -96 208 -96 48
WIRE -96 208 -464 208
WIRE 288 208 288 48
WIRE 288 208 -96 208
WIRE 288 224 288 208
FLAG 288 224 0
FLAG 288 -128 LI
FLAG -608 16 TRIG
SYMBOL res 208 -112 R90
WINDOW 0 0 56 VBottom 2
WINDOW 3 32 56 VTop 2
SYMATTR InstName LOAD
SYMATTR Value 500
SYMBOL voltage 288 64 R180
WINDOW 123 0 0 Left 0
WINDOW 39 0 0 Left 0
WINDOW 0 44 57 Left 2
WINDOW 3 -57 -19 VRight 2
SYMATTR InstName V1
SYMATTR Value SINE(0 325 50)
SYMBOL voltage -608 64 R0
WINDOW 3 -62 -256 Invisible 2
WINDOW 123 0 0 Left 0
WINDOW 39 0 0 Left 0
WINDOW 0 42 38 Left 2
SYMATTR Value PULSE(0 12 0.004 1u 1u 100u 10m)
SYMATTR InstName V2
SYMBOL cap -384 80 R0
WINDOW 0 47 28 Left 2
WINDOW 3 47 58 Left 2
SYMATTR InstName C2
SYMATTR Value 10n
SYMATTR SpiceLine V=400
SYMBOL res -384 -48 R0
WINDOW 0 48 47 Left 2
WINDOW 3 50 72 Left 2
SYMATTR InstName R1
SYMATTR Value 39
SYMATTR SpiceLine pwr=2
SYMBOL SpecialFunctions\\varistor -80 80 M180
WINDOW 0 5 84 Left 2
SYMATTR InstName A1
SYMBOL voltage -176 -16 R0
WINDOW 0 -69 43 Left 2
WINDOW 3 -85 70 Left 2
WINDOW 123 0 0 Left 0
WINDOW 39 0 0 Left 0
SYMATTR InstName V3
SYMATTR Value 470
SYMBOL res 32 -112 R90
WINDOW 0 0 56 VBottom 2
WINDOW 3 32 56 Invisible 2
SYMATTR InstName FUSE
SYMATTR Value 0
SYMBOL MyLib\\TRIAC\\TRIAC_ST -496 -16 R0
SYMATTR InstName U2
TEXT -608 240 Left 2 !.tran 40m
TEXT -72 24 Left 2 ;MOV\n470V
TEXT -336 48 Left 2 ;2W
TEXT -336 160 Left 2 ;400V
TEXT -40 -64 Left 2 ;2A
