Version 4.1
SHEET 1 1132 824
WIRE -336 -96 -496 -96
WIRE -32 -96 -256 -96
WIRE 0 -96 -32 -96
WIRE 144 -96 144 -128
WIRE 144 -96 80 -96
WIRE 144 0 144 -96
WIRE -32 16 -32 -96
WIRE -48 32 -112 32
WIRE -496 48 -496 -96
WIRE -400 48 -496 48
WIRE -496 64 -496 48
WIRE -48 64 -64 64
WIRE -64 112 -64 64
WIRE -64 112 -112 112
WIRE -720 128 -720 96
WIRE -544 128 -720 128
WIRE -528 128 -544 128
WIRE -400 160 -400 128
WIRE -720 176 -720 128
WIRE -496 224 -496 128
WIRE -400 224 -496 224
WIRE -720 288 -720 256
WIRE -496 288 -496 224
WIRE -32 288 -32 80
WIRE -32 288 -496 288
WIRE 144 288 144 80
WIRE 144 288 -32 288
WIRE 144 304 144 288
FLAG 144 304 0
FLAG -720 288 0
FLAG 144 -128 LI
FLAG -720 96 TRIG
SYMBOL res -240 -112 R90
WINDOW 0 0 56 VBottom 2
WINDOW 3 32 56 VTop 2
SYMATTR InstName LOAD
SYMATTR Value 500
SYMBOL voltage 144 96 R180
WINDOW 123 0 0 Left 0
WINDOW 39 0 0 Left 0
WINDOW 0 44 57 Left 2
WINDOW 3 -57 -19 VRight 2
SYMATTR InstName V1
SYMATTR Value SINE(0 325 50)
SYMBOL voltage -720 160 R0
WINDOW 3 -62 -256 VRight 2
WINDOW 123 0 0 Left 0
WINDOW 39 0 0 Left 0
WINDOW 0 42 38 Left 2
SYMATTR Value PULSE(0 12 0.004 1u 1u 100u 10m)
SYMATTR InstName V2
SYMBOL cap -416 160 R0
WINDOW 0 47 28 Left 2
WINDOW 3 47 58 Left 2
SYMATTR InstName C2
SYMATTR Value 10n
SYMBOL res -416 32 R0
WINDOW 0 48 47 Left 2
WINDOW 3 50 72 Left 2
SYMATTR InstName R1
SYMATTR Value 39
SYMBOL SpecialFunctions\\varistor -16 112 M180
WINDOW 0 5 84 Left 2
SYMATTR InstName A1
SYMBOL voltage -112 16 R0
WINDOW 0 -69 43 Left 2
WINDOW 3 -85 70 Left 2
WINDOW 123 0 0 Left 0
WINDOW 39 0 0 Left 0
SYMATTR InstName V3
SYMATTR Value 470
SYMBOL res 96 -112 R90
WINDOW 0 0 56 VBottom 2
WINDOW 3 32 56 Invisible 2
SYMATTR InstName FUSE
SYMATTR Value 0
SYMBOL MyLib\\TRIAC\\ST_TRIAC -528 64 R0
WINDOW 0 52 62 Left 2
SYMATTR InstName U1
TEXT -656 288 Left 2 !.tran 40m
TEXT -8 56 Left 2 ;MOV\n470V
TEXT -368 128 Left 2 ;2W
TEXT -368 240 Left 2 ;400V
TEXT 24 -64 Left 2 ;2A
