Version 4.1
SHEET 1 1132 824
WIRE -480 -96 -608 -96
WIRE -272 -96 -272 -128
WIRE -272 -96 -400 -96
WIRE -272 0 -272 -96
WIRE -1360 48 -1360 16
WIRE -1168 48 -1360 48
WIRE -1104 48 -1168 48
WIRE -960 48 -1024 48
WIRE -784 48 -800 48
WIRE -608 48 -608 -96
WIRE -608 48 -704 48
WIRE -512 48 -608 48
WIRE -608 64 -608 48
WIRE -1360 96 -1360 48
WIRE -1168 96 -1168 48
WIRE -960 128 -1008 128
WIRE -656 128 -800 128
WIRE -512 160 -512 128
WIRE -1008 176 -1008 128
WIRE -1360 208 -1360 176
WIRE -1168 208 -1168 176
WIRE -608 224 -608 128
WIRE -512 224 -608 224
WIRE -608 288 -608 224
WIRE -272 288 -272 80
WIRE -272 288 -608 288
WIRE -272 304 -272 288
FLAG -272 304 0
FLAG -1360 208 0
FLAG -1008 176 0
FLAG -272 -128 LI
FLAG -1360 16 TRIG
FLAG -1168 272 0
SYMBOL res -384 -112 R90
WINDOW 0 0 56 VBottom 2
WINDOW 3 32 56 VTop 2
SYMATTR InstName LOAD
SYMATTR Value 500
SYMBOL res -800 64 R270
WINDOW 0 32 56 VTop 2
WINDOW 3 0 56 VBottom 2
SYMATTR InstName R2
SYMATTR Value 360
SYMBOL voltage -272 96 R180
WINDOW 123 0 0 Left 0
WINDOW 39 0 0 Left 0
WINDOW 0 44 57 Left 2
WINDOW 3 -57 -19 VRight 2
SYMATTR InstName V1
SYMATTR Value SINE(0 325 50)
SYMBOL res -1008 32 R90
WINDOW 0 0 56 VBottom 2
WINDOW 3 32 56 VTop 2
SYMATTR InstName R3
SYMATTR Value 330
SYMBOL voltage -1360 80 R0
WINDOW 3 -49 -39 VRight 0
WINDOW 123 0 0 Left 0
WINDOW 39 0 0 Left 0
WINDOW 0 42 38 Left 2
SYMATTR Value PULSE(0 5 0.004 1u 1u 100u 10m)
SYMATTR InstName V2
SYMBOL cap -528 160 R0
WINDOW 0 47 28 Left 2
WINDOW 3 47 58 Left 2
SYMATTR InstName C2
SYMATTR Value 10n
SYMBOL res -528 32 R0
WINDOW 0 48 47 Left 2
WINDOW 3 50 72 Left 2
SYMATTR InstName R1
SYMATTR Value 39
SYMBOL LED -1184 208 R0
WINDOW 0 -41 28 Left 2
WINDOW 3 -27 50 Left 2
SYMATTR InstName D1
SYMBOL res -1184 80 R0
SYMATTR InstName R6
SYMATTR Value 470
SYMBOL MyLib\\Opto\\MOC3021 -912 64 R0
SYMATTR InstName U3
SYMBOL MyLib\\TRIAC\\ST_TRIAC -640 64 R0
WINDOW 0 52 62 Left 2
SYMATTR InstName U1
TEXT -944 256 Left 2 !.tran 40m
TEXT -480 128 Left 2 ;2W
TEXT -480 240 Left 2 ;400V
