Version 4.1
SHEET 1 1132 824
WIRE -1136 -128 -1136 -160
WIRE -1328 -112 -1328 -160
WIRE -1040 -80 -1040 -112
WIRE -448 -64 -496 -64
WIRE -240 -64 -240 -96
WIRE -240 -64 -368 -64
WIRE -1136 -16 -1136 -48
WIRE -240 0 -240 -64
WIRE -1328 16 -1328 -32
WIRE -1040 48 -1040 0
WIRE -960 48 -1040 48
WIRE -784 48 -800 48
WIRE -656 48 -704 48
WIRE -624 48 -656 48
WIRE -496 48 -496 -64
WIRE -496 48 -544 48
WIRE -496 64 -496 48
WIRE -1136 128 -1136 48
WIRE -1040 128 -1136 128
WIRE -960 128 -1040 128
WIRE -544 128 -800 128
WIRE -656 160 -656 48
WIRE -1040 176 -1040 128
WIRE -1376 224 -1376 192
WIRE -1248 224 -1376 224
WIRE -1104 224 -1168 224
WIRE -1376 272 -1376 224
WIRE -656 272 -656 224
WIRE -496 272 -496 128
WIRE -496 272 -656 272
WIRE -240 272 -240 80
WIRE -240 272 -496 272
WIRE -240 288 -240 272
WIRE -1040 320 -1040 272
WIRE -1376 384 -1376 352
FLAG -240 288 0
FLAG -1376 384 0
FLAG -1040 320 0
FLAG -240 -96 LI
FLAG -1376 192 TRIG
FLAG -1328 16 0
FLAG -1040 -112 VCC
FLAG -1328 -160 VCC
FLAG -1136 -160 VCC
SYMBOL res -352 -80 R90
WINDOW 0 0 56 VBottom 2
WINDOW 3 32 56 VTop 2
SYMATTR InstName LOAD
SYMATTR Value 500
SYMBOL res -800 64 R270
WINDOW 0 32 56 VTop 2
WINDOW 3 0 56 VBottom 2
SYMATTR InstName R2
SYMATTR Value 360
SYMBOL voltage -240 96 R180
WINDOW 123 0 0 Left 0
WINDOW 39 0 0 Left 0
WINDOW 0 44 57 Left 2
WINDOW 3 -57 -19 VRight 2
SYMATTR InstName V1
SYMATTR Value SINE(0 325 50)
SYMBOL res -1056 -96 R0
SYMATTR InstName R3
SYMATTR Value 220
SYMBOL voltage -1376 256 R0
WINDOW 3 -49 -29 VRight 0
WINDOW 123 0 0 Left 0
WINDOW 39 0 0 Left 0
WINDOW 0 42 38 Left 2
SYMATTR Value PULSE(0 3.3 0.004 1u 1u 100u 10m)
SYMATTR InstName V2
SYMBOL res -640 64 R270
WINDOW 0 32 56 VTop 2
WINDOW 3 0 56 VBottom 2
SYMATTR InstName R4
SYMATTR Value 470
SYMBOL cap -672 160 R0
WINDOW 0 -39 24 Left 2
WINDOW 3 -49 47 Left 2
SYMATTR InstName C1
SYMATTR Value 47n
SYMBOL npn -1104 176 R0
SYMATTR InstName Q1
SYMATTR Value BC337-40
SYMBOL voltage -1328 -128 R0
WINDOW 0 39 47 Left 2
WINDOW 3 39 74 Left 2
WINDOW 123 0 0 Left 0
WINDOW 39 0 0 Left 0
SYMATTR InstName V4
SYMATTR Value 3.3
SYMBOL res -1152 208 R90
WINDOW 0 0 56 VBottom 2
WINDOW 3 32 56 VTop 2
SYMATTR InstName R5
SYMATTR Value 1.5K
SYMBOL LED -1152 -16 R0
WINDOW 0 -41 28 Left 2
WINDOW 3 -27 50 Left 2
SYMATTR InstName D1
SYMBOL res -1152 -144 R0
SYMATTR InstName R6
SYMATTR Value 470
SYMBOL MyLib\\Opto\\MOC3021 -912 64 R0
SYMATTR InstName U3
SYMBOL MyLib\\TRIAC\\ST_TRIAC -528 64 R0
WINDOW 0 52 62 Left 2
SYMATTR InstName U1
TEXT -1312 384 Left 2 !.tran 40m
TEXT -736 232 Left 2 ;400V
