Version 4.1
SHEET 1 880 680
WIRE 64 128 -96 128
WIRE 96 128 64 128
WIRE 240 128 176 128
WIRE 320 128 240 128
WIRE 560 128 416 128
WIRE -96 160 -96 128
WIRE 560 160 560 128
WIRE 240 192 240 128
WIRE 64 256 64 128
WIRE 192 256 64 256
WIRE 368 256 368 192
WIRE 368 256 288 256
WIRE -96 288 -96 240
WIRE 560 288 560 240
WIRE 368 304 368 256
WIRE 368 416 368 384
FLAG -96 288 0
FLAG 560 288 0
FLAG 368 416 0
SYMBOL voltage -96 144 R0
WINDOW 0 -70 43 Left 2
WINDOW 3 -69 68 Left 2
WINDOW 123 0 0 Left 0
WINDOW 39 0 0 Left 0
SYMATTR InstName V1
SYMATTR Value 12
SYMBOL res 384 400 R180
WINDOW 0 -39 70 Left 2
WINDOW 3 -52 45 Left 2
SYMATTR InstName R1
SYMATTR Value 10k
SYMBOL res 192 112 R90
WINDOW 0 0 56 VBottom 2
WINDOW 3 32 56 VTop 2
SYMATTR InstName R2
SYMATTR Value 22
SYMBOL res 576 256 R180
WINDOW 0 -75 75 Left 2
WINDOW 3 -40 49 Left 2
SYMATTR InstName LOAD
SYMATTR Value 24
SYMBOL pnp 416 192 M270
WINDOW 0 90 87 VLeft 2
WINDOW 3 119 88 VLeft 2
SYMATTR InstName Q1
SYMATTR Value BC327_40
SYMBOL pnp 288 192 R90
WINDOW 0 85 55 VRight 2
WINDOW 3 116 -30 VRight 2
SYMATTR InstName Q2
SYMATTR Value BC327_40
TEXT -88 336 Left 2 !.tran 10m
TEXT -64 56 Left 2 ;I <= 0.7v / R2 <= 30mA
TEXT -88 360 Left 2 !.inc Transistor.lib
