Version 4.1
SHEET 1 884 948
WIRE 128 256 128 224
WIRE 480 256 480 224
WIRE 320 336 320 304
WIRE 128 384 128 336
WIRE 480 384 480 336
WIRE 320 464 320 416
WIRE 432 464 320 464
WIRE 320 528 320 464
WIRE 480 576 480 480
WIRE 480 576 384 576
WIRE 480 624 480 576
WIRE 320 736 320 624
WIRE 480 736 480 704
WIRE 480 736 320 736
WIRE 480 800 480 736
FLAG 128 384 0
FLAG 480 800 0
FLAG 128 224 VDD
FLAG 480 224 VDD
FLAG 320 304 VDD
SYMBOL voltage 128 240 R0
WINDOW 0 -70 43 Left 2
WINDOW 3 -69 68 Left 2
WINDOW 123 0 0 Left 0
WINDOW 39 0 0 Left 0
SYMATTR InstName V1
SYMATTR Value 12
SYMBOL res 336 432 R180
WINDOW 0 48 64 Left 2
WINDOW 3 48 40 Left 2
SYMATTR InstName R1
SYMATTR Value 1k
SYMBOL npn 384 528 M0
WINDOW 0 81 34 Left 2
WINDOW 3 190 67 Right 2
SYMATTR InstName Q2
SYMATTR Value BC337-40
SYMBOL res 496 720 R180
WINDOW 0 48 64 Left 2
WINDOW 3 48 40 Left 2
SYMATTR InstName R2
SYMATTR Value 0.35
SYMBOL res 464 240 R0
SYMATTR InstName LOAD
SYMATTR Value 2
SYMBOL nmos 432 384 R0
SYMATTR InstName M1
SYMATTR Value PSMN1R025YLD
TEXT 48 448 Left 2 !.tran 10m
TEXT 520 640 Left 2 ;0.7v / Curent = R\n0.7v /2A = R = 0.35
