Version 4.1
SHEET 1 1508 1044
WIRE 752 -224 752 -272
WIRE 368 -192 368 -224
WIRE 480 -192 368 -192
WIRE 368 -160 368 -192
WIRE 480 -144 480 -192
WIRE 752 -112 752 -144
WIRE 928 -112 752 -112
WIRE 752 -80 752 -112
WIRE -272 -32 -272 -48
WIRE -160 -32 -272 -32
WIRE -16 -32 -80 -32
WIRE 176 -32 64 -32
WIRE 368 -32 368 -80
WIRE 368 -32 304 -32
WIRE 480 -32 480 -80
WIRE 480 -32 368 -32
WIRE 544 -32 480 -32
WIRE 688 -32 624 -32
WIRE -272 -16 -272 -32
WIRE 176 32 64 32
WIRE 368 32 304 32
WIRE -160 64 -192 64
WIRE -16 64 -80 64
WIRE 64 64 64 32
WIRE 752 64 752 16
WIRE -272 96 -272 64
WIRE -192 96 -192 64
WIRE -192 96 -272 96
WIRE 992 96 992 48
WIRE -272 128 -272 96
WIRE -272 208 -272 192
WIRE -160 208 -272 208
WIRE -16 208 -80 208
WIRE 176 208 64 208
WIRE 368 208 368 32
WIRE 368 208 304 208
WIRE 992 224 992 176
WIRE -272 240 -272 208
WIRE 176 272 112 272
WIRE 368 272 304 272
WIRE -160 304 -192 304
WIRE -16 304 -80 304
WIRE 112 304 112 272
WIRE 112 304 64 304
WIRE -272 336 -272 320
WIRE -192 336 -192 304
WIRE -192 336 -272 336
WIRE 992 336 992 288
WIRE -272 368 -272 336
WIRE 800 384 736 384
WIRE 928 384 880 384
WIRE 560 432 560 384
WIRE -272 448 -272 432
WIRE -160 448 -272 448
WIRE -16 448 -80 448
WIRE 176 448 64 448
WIRE 368 448 368 272
WIRE 368 448 304 448
WIRE -272 480 -272 448
WIRE 992 480 992 432
WIRE 176 512 112 512
WIRE 368 512 304 512
WIRE -160 544 -192 544
WIRE -16 544 -80 544
WIRE 112 544 112 512
WIRE 112 544 64 544
WIRE 368 560 368 512
WIRE 560 560 560 512
WIRE -272 576 -272 560
WIRE -192 576 -192 544
WIRE -192 576 -272 576
WIRE -272 608 -272 576
FLAG -272 128 0
FLAG 560 560 0
FLAG 560 384 VCC
FLAG 368 -224 VCC
FLAG 752 64 0
FLAG -272 368 0
FLAG -272 608 0
FLAG 368 560 0
FLAG -272 -48 L1
FLAG -272 192 L2
FLAG -272 432 L3
FLAG 752 -272 VCC
FLAG 928 -112 OUT
IOPIN 928 -112 Out
FLAG 992 480 0
FLAG 992 48 VCC
FLAG 736 384 OUT
IOPIN 736 384 In
SYMBOL res 352 -176 R0
SYMATTR InstName R1
SYMATTR Value 33k
SYMBOL voltage -272 80 R180
WINDOW 123 0 0 Left 0
WINDOW 39 0 0 Left 0
WINDOW 0 -65 72 Left 2
WINDOW 3 54 -107 VRight 2
SYMATTR InstName V1
SYMATTR Value SINE(0 310 50 300m 0 0 120)
SYMBOL res 80 -48 R90
WINDOW 0 0 56 VBottom 2
WINDOW 3 32 56 VTop 2
SYMATTR InstName R2
SYMATTR Value 33k
SYMBOL voltage 560 416 R0
WINDOW 123 0 0 Left 0
WINDOW 39 0 0 Left 0
WINDOW 0 42 39 Left 2
WINDOW 3 48 67 Left 2
SYMATTR InstName V2
SYMATTR Value 5
SYMBOL res -64 -48 R90
WINDOW 0 0 56 VBottom 2
WINDOW 3 32 56 VTop 2
SYMATTR InstName R3
SYMATTR Value 33k
SYMBOL res 80 48 R90
WINDOW 0 0 56 VBottom 2
WINDOW 3 32 56 VTop 2
SYMATTR InstName R4
SYMATTR Value 33k
SYMBOL res -64 48 R90
WINDOW 0 0 56 VBottom 2
WINDOW 3 32 56 VTop 2
SYMATTR InstName R5
SYMATTR Value 33k
SYMBOL cap 464 -144 R0
SYMATTR InstName C1
SYMATTR Value 1µ
SYMBOL npn 688 -80 R0
SYMATTR InstName Q1
SYMBOL res 640 -48 R90
WINDOW 0 0 56 VBottom 2
WINDOW 3 32 56 VTop 2
SYMATTR InstName R9
SYMATTR Value 10k
SYMBOL LED 976 224 R0
WINDOW 0 -57 21 Left 2
WINDOW 3 -32 42 Left 2
SYMATTR InstName LED
SYMBOL Contrib\\Wurth\\Optoelectronics\\Optocoupler\\WL-OCPT\\WL-OCPT_Series_354 240 0 R0
SYMATTR InstName Q2
SYMBOL voltage -272 336 R180
WINDOW 123 0 0 Left 0
WINDOW 39 0 0 Left 0
WINDOW 0 55 64 Left 2
WINDOW 3 99 -89 VRight 2
SYMATTR InstName V3
SYMATTR Value SINE(0 310 50 600m 0 0 90)
SYMBOL res 80 192 R90
WINDOW 0 0 56 VBottom 2
WINDOW 3 32 56 VTop 2
SYMATTR InstName R10
SYMATTR Value 33k
SYMBOL res -64 192 R90
WINDOW 0 0 56 VBottom 2
WINDOW 3 32 56 VTop 2
SYMATTR InstName R11
SYMATTR Value 33k
SYMBOL Contrib\\Wurth\\Optoelectronics\\Optocoupler\\WL-OCPT\\WL-OCPT_Series_354 240 240 R0
SYMATTR InstName Q4
SYMBOL res 80 288 R90
WINDOW 0 0 56 VBottom 2
WINDOW 3 32 56 VTop 2
SYMATTR InstName R12
SYMATTR Value 33k
SYMBOL res -64 288 R90
WINDOW 0 0 56 VBottom 2
WINDOW 3 32 56 VTop 2
SYMATTR InstName R13
SYMATTR Value 33k
SYMBOL voltage -272 576 R180
WINDOW 123 0 0 Left 0
WINDOW 39 0 0 Left 0
WINDOW 0 -63 80 Left 2
WINDOW 3 50 -62 VRight 2
SYMATTR InstName V4
SYMATTR Value SINE(0 310 50 0 0)
SYMBOL res 80 432 R90
WINDOW 0 0 56 VBottom 2
WINDOW 3 32 56 VTop 2
SYMATTR InstName R6
SYMATTR Value 33k
SYMBOL res -64 432 R90
WINDOW 0 0 56 VBottom 2
WINDOW 3 32 56 VTop 2
SYMATTR InstName R14
SYMATTR Value 33k
SYMBOL Contrib\\Wurth\\Optoelectronics\\Optocoupler\\WL-OCPT\\WL-OCPT_Series_354 240 480 R0
SYMATTR InstName Q3
SYMBOL res 80 528 R90
WINDOW 0 0 56 VBottom 2
WINDOW 3 32 56 VTop 2
SYMATTR InstName R15
SYMATTR Value 33k
SYMBOL res -64 528 R90
WINDOW 0 0 56 VBottom 2
WINDOW 3 32 56 VTop 2
SYMATTR InstName R16
SYMATTR Value 33k
SYMBOL res 736 -240 R0
SYMATTR InstName R7
SYMATTR Value 2.2k
SYMBOL npn 928 336 R0
SYMATTR InstName Q5
SYMBOL res 976 80 R0
SYMATTR InstName R17
SYMATTR Value 2.2k
SYMBOL res 896 368 R90
WINDOW 0 0 56 VBottom 2
WINDOW 3 32 56 VTop 2
SYMATTR InstName R8
SYMATTR Value 33k
TEXT 440 416 Left 2 !.tran 3
TEXT 200 80 Left 2 ;LTV814
TEXT 200 320 Left 2 ;LTV814
TEXT 200 560 Left 2 ;LTV814
