Version 4.1
SHEET 1 1692 1044
WIRE 368 -160 368 -224
WIRE 752 -160 752 -208
WIRE -368 -32 -368 -48
WIRE -288 -32 -368 -32
WIRE -160 -32 -208 -32
WIRE -16 -32 -80 -32
WIRE 176 -32 64 -32
WIRE 368 -32 368 -80
WIRE 368 -32 304 -32
WIRE 752 -32 752 -80
WIRE -368 -16 -368 -32
WIRE -160 32 -192 32
WIRE -16 32 -80 32
WIRE 176 32 64 32
WIRE 368 32 304 32
WIRE -368 96 -368 64
WIRE -192 96 -192 32
WIRE -192 96 -368 96
WIRE -368 128 -368 96
WIRE -368 240 -368 224
WIRE -304 240 -368 240
WIRE -160 240 -224 240
WIRE -16 240 -80 240
WIRE 176 240 64 240
WIRE 368 240 368 32
WIRE 368 240 304 240
WIRE -368 272 -368 240
WIRE 816 272 816 224
WIRE -160 304 -192 304
WIRE -16 304 -80 304
WIRE 176 304 64 304
WIRE 368 304 304 304
WIRE -368 368 -368 352
WIRE -192 368 -192 304
WIRE -192 368 -368 368
WIRE 704 384 704 336
WIRE -368 400 -368 368
WIRE 816 400 816 352
WIRE 704 496 704 464
WIRE 816 496 816 464
WIRE 816 496 704 496
WIRE 912 496 816 496
WIRE -368 512 -368 496
WIRE -304 512 -368 512
WIRE -160 512 -224 512
WIRE -16 512 -80 512
WIRE 176 512 64 512
WIRE 368 512 368 304
WIRE 368 512 304 512
WIRE 704 528 704 496
WIRE -368 544 -368 512
WIRE -160 576 -192 576
WIRE -16 576 -80 576
WIRE 176 576 64 576
WIRE 464 576 304 576
WIRE 592 576 464 576
WIRE 640 576 592 576
WIRE 592 608 592 576
WIRE 464 624 464 576
WIRE -368 640 -368 624
WIRE -192 640 -192 576
WIRE -192 640 -368 640
WIRE -368 672 -368 640
WIRE 704 672 704 624
WIRE 464 720 464 688
WIRE 592 720 592 688
FLAG -368 128 0
FLAG 752 -32 0
FLAG 752 -208 VCC
FLAG 368 -224 VCC
FLAG 704 672 0
FLAG -368 400 0
FLAG -368 672 0
FLAG -368 -48 L1
FLAG -368 224 L2
FLAG -368 496 L3
FLAG 704 336 VCC
FLAG 912 496 OUT
IOPIN 912 496 Out
FLAG 816 224 VCC
FLAG 592 720 0
FLAG 464 720 0
SYMBOL res 352 -176 R0
SYMATTR InstName R1
SYMATTR Value 2.2k
SYMBOL voltage -368 80 R180
WINDOW 123 0 0 Left 0
WINDOW 39 0 0 Left 0
WINDOW 0 -65 72 Left 2
WINDOW 3 54 -107 VRight 2
SYMATTR InstName V1
SYMATTR Value SINE(0 310 50 20m 0 0 3)
SYMBOL res 80 -48 R90
WINDOW 0 -28 68 VBottom 2
WINDOW 3 -30 60 VTop 2
SYMATTR InstName R2
SYMATTR Value 33k
SYMBOL voltage 752 -176 R0
WINDOW 123 0 0 Left 0
WINDOW 39 0 0 Left 0
WINDOW 0 42 39 Left 2
WINDOW 3 48 67 Left 2
SYMATTR InstName V2
SYMATTR Value 5
SYMBOL res -64 -48 R90
WINDOW 0 -31 66 VBottom 2
WINDOW 3 -31 58 VTop 2
SYMATTR InstName R3
SYMATTR Value 33k
SYMBOL res 80 16 R90
WINDOW 0 62 60 VBottom 2
WINDOW 3 58 52 VTop 2
SYMATTR InstName R4
SYMATTR Value 33k
SYMBOL res -64 16 R90
WINDOW 0 63 61 VBottom 2
WINDOW 3 61 53 VTop 2
SYMATTR InstName R5
SYMATTR Value 33k
SYMBOL cap 448 624 R0
WINDOW 0 -40 26 Left 2
WINDOW 3 -42 50 Left 2
SYMATTR InstName C1
SYMATTR Value 10µ
SYMBOL npn 640 528 R0
SYMATTR InstName Q1
SYMBOL res 608 704 R180
WINDOW 0 42 76 Left 2
WINDOW 3 41 49 Left 2
SYMATTR InstName R9
SYMATTR Value 33k
SYMBOL LED 800 400 R0
WINDOW 0 -57 21 Left 2
WINDOW 3 -32 42 Left 2
SYMATTR InstName LED
SYMBOL Contrib\\Wurth\\Optoelectronics\\Optocoupler\\WL-OCPT\\WL-OCPT_Series_354 240 0 R0
SYMATTR InstName Q2
SYMBOL voltage -368 368 R180
WINDOW 123 0 0 Left 0
WINDOW 39 0 0 Left 0
WINDOW 0 55 64 Left 2
WINDOW 3 99 -89 VRight 2
SYMATTR InstName V3
SYMATTR Value SINE(0 310 50 0 0 120)
SYMBOL res 80 224 R90
WINDOW 0 -30 59 VBottom 2
WINDOW 3 -33 56 VTop 2
SYMATTR InstName R10
SYMATTR Value 33k
SYMBOL res -64 224 R90
WINDOW 0 -30 61 VBottom 2
WINDOW 3 -33 61 VTop 2
SYMATTR InstName R11
SYMATTR Value 33k
SYMBOL Contrib\\Wurth\\Optoelectronics\\Optocoupler\\WL-OCPT\\WL-OCPT_Series_354 240 272 R0
SYMATTR InstName Q4
SYMBOL res 80 288 R90
WINDOW 0 62 49 VBottom 2
WINDOW 3 62 49 VTop 2
SYMATTR InstName R12
SYMATTR Value 33k
SYMBOL res -64 288 R90
WINDOW 0 67 51 VBottom 2
WINDOW 3 62 53 VTop 2
SYMATTR InstName R13
SYMATTR Value 33k
SYMBOL voltage -368 640 R180
WINDOW 123 0 0 Left 0
WINDOW 39 0 0 Left 0
WINDOW 0 -63 80 Left 2
WINDOW 3 50 -62 VRight 2
SYMATTR InstName V4
SYMATTR Value SINE(0 310 50 0 0 240)
SYMBOL res 80 496 R90
WINDOW 0 -32 61 VBottom 2
WINDOW 3 -35 53 VTop 2
SYMATTR InstName R6
SYMATTR Value 33k
SYMBOL res -64 496 R90
WINDOW 0 -35 56 VBottom 2
WINDOW 3 -38 56 VTop 2
SYMATTR InstName R14
SYMATTR Value 33k
SYMBOL Contrib\\Wurth\\Optoelectronics\\Optocoupler\\WL-OCPT\\WL-OCPT_Series_354 240 544 R0
SYMATTR InstName Q3
SYMBOL res 80 560 R90
WINDOW 0 64 46 VBottom 2
WINDOW 3 62 49 VTop 2
SYMATTR InstName R15
SYMATTR Value 33k
SYMBOL res -64 560 R90
WINDOW 0 67 56 VBottom 2
WINDOW 3 67 54 VTop 2
SYMATTR InstName R16
SYMATTR Value 33k
SYMBOL res 688 368 R0
WINDOW 0 -46 51 Left 2
WINDOW 3 -59 80 Left 2
SYMATTR InstName R7
SYMATTR Value 2.2k
SYMBOL res 800 256 R0
SYMATTR InstName R17
SYMATTR Value 2.2k
SYMBOL res -192 -48 R90
WINDOW 0 -31 66 VBottom 2
WINDOW 3 -31 58 VTop 2
SYMATTR InstName Fuse1
SYMATTR Value 0
SYMBOL res -208 224 R90
WINDOW 0 -31 66 VBottom 2
WINDOW 3 -31 58 VTop 2
SYMATTR InstName Fuse2
SYMATTR Value 0
SYMBOL res -208 496 R90
WINDOW 0 -31 66 VBottom 2
WINDOW 3 -31 58 VTop 2
SYMATTR InstName Fuse3
SYMATTR Value 0
TEXT 600 -192 Left 2 !.tran 200m
TEXT 200 80 Left 2 ;LTV814
TEXT 200 352 Left 2 ;LTV814
TEXT 200 624 Left 2 ;LTV814
