Version 4.1
SHEET 1 880 680
WIRE -96 96 -192 96
WIRE 32 96 -16 96
WIRE 256 96 96 96
WIRE 432 96 256 96
WIRE 496 96 432 96
WIRE 800 96 640 96
WIRE 432 112 432 96
WIRE 256 128 256 96
WIRE 432 192 432 176
WIRE 496 192 496 176
WIRE 496 192 432 192
WIRE 640 208 640 176
WIRE 800 208 800 176
WIRE -192 224 -192 176
WIRE 256 240 256 192
WIRE 496 240 496 192
WIRE 256 352 256 320
FLAG 496 240 0
FLAG 640 208 0
FLAG -192 224 0
FLAG 256 352 0
FLAG 800 208 0
SYMBOL ind 480 80 R0
SYMATTR InstName L1
SYMATTR Value 1m
SYMATTR Type ind
SYMATTR SpiceLine Rser=6.3
SYMBOL ind 656 80 M0
SYMATTR InstName L2
SYMATTR Value 1m
SYMATTR Type ind
SYMATTR SpiceLine Rser=6.3
SYMBOL voltage -192 80 R0
WINDOW 0 36 47 Left 2
WINDOW 3 -57 -93 VRight 2
WINDOW 123 0 0 Left 0
WINDOW 39 0 0 Left 0
SYMATTR InstName V1
SYMATTR Value PULSE(0 3.3 0 10n 10n 0.5m 1m)
SYMBOL diode 448 176 R180
WINDOW 0 42 38 Left 2
WINDOW 3 40 13 Left 2
SYMATTR InstName D1
SYMATTR Value 1N4148
SYMBOL res 0 80 R90
WINDOW 0 0 56 VBottom 2
WINDOW 3 32 56 VTop 2
SYMATTR InstName R1
SYMATTR Value 10
SYMBOL cap 240 128 R0
SYMATTR InstName C2
SYMATTR Value 10n
SYMBOL res 240 224 R0
SYMATTR InstName R2
SYMATTR Value 1k
SYMBOL res 784 80 R0
SYMATTR InstName R3
SYMATTR Value 330
SYMBOL diode 32 112 R270
WINDOW 0 32 32 VTop 2
WINDOW 3 0 32 VBottom 2
SYMATTR InstName D2
SYMATTR Value 1N4148
TEXT 504 32 Left 2 !K1 L1 L2 1
TEXT 504 -24 Left 2 !.tran 10m
