Version 4.1
SHEET 1 1196 992
WIRE 0 144 -32 144
WIRE 112 144 80 144
WIRE 656 240 656 208
WIRE -128 256 -128 224
WIRE -32 256 -32 144
WIRE -32 256 -128 256
WIRE 16 256 -32 256
WIRE 112 256 112 144
WIRE 112 256 80 256
WIRE 256 256 112 256
WIRE 400 256 256 256
WIRE 448 256 400 256
WIRE 624 256 448 256
WIRE -128 272 -128 256
WIRE 768 272 688 272
WIRE 832 272 768 272
WIRE 448 288 448 256
WIRE 624 288 576 288
WIRE 224 304 144 304
WIRE 144 336 144 304
WIRE 656 336 656 304
WIRE 224 352 224 304
WIRE 256 352 256 256
WIRE 208 384 176 384
WIRE 304 384 272 384
WIRE -128 400 -128 352
WIRE 448 416 448 368
WIRE 576 432 576 288
WIRE 768 432 768 272
WIRE 768 432 576 432
WIRE 240 496 240 416
WIRE -128 608 -128 560
WIRE 0 608 0 560
WIRE 240 608 240 560
WIRE 400 608 400 256
WIRE 400 608 240 608
WIRE -128 720 -128 688
WIRE 0 720 0 688
FLAG -128 560 VDD
FLAG 0 560 VEE
FLAG -128 720 0
FLAG 304 384 VEE
FLAG 176 384 VDD
FLAG 144 336 0
FLAG 656 336 VEE
FLAG 656 208 VDD
FLAG -128 400 0
FLAG 448 416 0
FLAG 832 272 OUT
IOPIN 832 272 Out
FLAG -128 224 IN
FLAG 0 720 0
SYMBOL cap 80 240 R90
WINDOW 0 0 32 VBottom 2
WINDOW 3 32 32 VTop 2
SYMATTR InstName C1
SYMATTR Value 100n
SYMBOL res 96 128 R90
WINDOW 0 0 56 VBottom 2
WINDOW 3 32 56 VTop 2
SYMATTR InstName R1
SYMATTR Value 1Meg
SYMBOL MyLib\\OpAmp\\LM358 176 384 M90
SYMATTR InstName U1
SYMBOL voltage -128 592 R0
WINDOW 0 41 45 Left 2
WINDOW 3 46 74 Left 2
WINDOW 123 0 0 Left 0
WINDOW 39 0 0 Left 0
SYMATTR InstName V1
SYMATTR Value 12
SYMBOL voltage 0 704 R180
WINDOW 0 -64 78 Left 2
WINDOW 3 -68 51 Left 2
WINDOW 123 0 0 Left 0
WINDOW 39 0 0 Left 0
SYMATTR InstName V2
SYMATTR Value 12
SYMBOL res 432 272 R0
SYMATTR InstName R2
SYMATTR Value 100k
SYMBOL MyLib\\OpAmp\\LM358 656 208 R0
SYMATTR InstName U2
SYMBOL voltage -128 256 R0
WINDOW 0 42 43 Left 2
WINDOW 3 24 96 Invisible 2
WINDOW 123 0 0 Left 0
WINDOW 39 0 0 Left 0
SYMATTR InstName V3
SYMATTR Value PULSE(-3.3 3.3 0 1n 1n {0.5/1k} {1/1k})
SYMBOL diode 224 496 R0
SYMATTR InstName D1
SYMATTR Value 1N4148
TEXT 72 720 Left 2 !.tran 5m
