.MODEL BD244Amod PNP(IS=1.09078p ISE=2.51189p ISC=9.14539E-13 XTI=3 BF=240.3 BR=20.265 IKF=1.1124198 IKR=0.524807 XTB=1.3913 VAF=153.184 VAR=36.6808 VJE=0.5862666 VJC=0.4538756 RE=1.0135 RC=1.0135 RB=49.2185 RBM=0.727994 IRB=5.84552E-5 CJE=4.484304E-10 CJC=2.066303E-10 XCJC=0.6935 FC=0.5 NF=1.00172 NR=0.9935 NE=1.5 NC=1.21111 MJE=0.3243386 MJC=0.3323408 EG=1.2342 VCEO=70 ICRATING=6 MFG=PHILIPS)

* BD244A PNP transistor subcircuit
* Pins: C B E
.SUBCKT BD244A C B E
Q1 C B E BD244Amod
.ENDS BD244A