.SUBCKT 1N4004 1 2
D1 1 2 DUMMYD
.model DUMMYD D(IS=5.31656e-08 RS=0.0392384 N=2 EG=0.6 XTI=0.05 BV=400 IBV=5e-08 CJO=1e-11 VJ=0.7 M=0.5 FC=0.5 TT=1e-09 KF=0 AF=1)
.ENDS 1N4004
