Version 4.1
SHEET 1 1292 680
WIRE 256 -160 256 -208
WIRE 864 -144 864 -176
WIRE 720 -48 720 -96
WIRE 256 -32 256 -80
WIRE 352 -32 352 -64
WIRE 464 -32 352 -32
WIRE 864 -32 864 -64
WIRE 352 0 352 -32
WIRE 464 16 464 -32
WIRE 720 48 720 32
WIRE 864 48 864 32
WIRE 864 48 720 48
WIRE 960 48 864 48
WIRE 720 80 720 48
WIRE -368 128 -416 128
WIRE -256 128 -368 128
WIRE -112 128 -176 128
WIRE 80 128 -32 128
WIRE 352 128 352 80
WIRE 352 128 208 128
WIRE 464 128 464 80
WIRE 464 128 352 128
WIRE 528 128 464 128
WIRE 656 128 608 128
WIRE -368 160 -368 128
WIRE 80 192 -32 192
WIRE 352 192 208 192
WIRE -256 224 -288 224
WIRE -112 224 -176 224
WIRE -32 224 -32 192
WIRE 720 224 720 176
WIRE -368 256 -368 240
WIRE -288 256 -288 224
WIRE -288 256 -368 256
WIRE -368 288 -368 256
WIRE 352 288 352 192
FLAG -368 288 0
FLAG 256 -32 0
FLAG -416 128 IN
IOPIN -416 128 In
FLAG 352 288 0
FLAG 256 -208 VCC
FLAG 352 -64 VCC
FLAG 720 224 0
FLAG 720 -96 VCC
FLAG 960 48 OUT
IOPIN 960 48 Out
FLAG 864 -176 VCC
SYMBOL res 336 -16 R0
SYMATTR InstName R1
SYMATTR Value 100k
SYMBOL voltage -368 144 R0
WINDOW 123 0 0 Left 0
WINDOW 39 0 0 Left 0
WINDOW 0 -79 39 Left 2
WINDOW 3 -329 75 Left 2
SYMATTR InstName V1
SYMATTR Value SINE(0 310 50 0 0 0 100)
SYMBOL res -16 112 R90
WINDOW 0 0 56 VBottom 2
WINDOW 3 32 56 VTop 2
SYMATTR InstName R2
SYMATTR Value 33k
SYMBOL voltage 256 -176 R0
WINDOW 123 0 0 Left 0
WINDOW 39 0 0 Left 0
WINDOW 0 -70 41 Left 2
WINDOW 3 -56 69 Left 2
SYMATTR InstName V2
SYMATTR Value 5
SYMBOL res -160 112 R90
WINDOW 0 0 56 VBottom 2
WINDOW 3 32 56 VTop 2
SYMATTR InstName R3
SYMATTR Value 33k
SYMBOL res -16 208 R90
WINDOW 0 0 56 VBottom 2
WINDOW 3 32 56 VTop 2
SYMATTR InstName R4
SYMATTR Value 33k
SYMBOL res -160 208 R90
WINDOW 0 0 56 VBottom 2
WINDOW 3 32 56 VTop 2
SYMATTR InstName R5
SYMATTR Value 33k
SYMBOL cap 448 16 R0
SYMATTR InstName C1
SYMATTR Value 1µ
SYMBOL npn 656 80 R0
SYMATTR InstName Q1
SYMBOL res 848 -160 R0
SYMATTR InstName R8
SYMATTR Value 1k
SYMBOL res 624 112 R90
WINDOW 0 0 56 VBottom 2
WINDOW 3 32 56 VTop 2
SYMATTR InstName R9
SYMATTR Value 10k
SYMBOL LED 880 32 R180
WINDOW 0 -53 52 Left 2
WINDOW 3 -30 22 Left 2
SYMATTR InstName LED
SYMBOL res 704 -64 R0
SYMATTR InstName R7
SYMATTR Value 10k
SYMBOL Contrib\\Wurth\\Optoelectronics\\Optocoupler\\WL-OCPT\\WL-OCPT_Series_354 144 160 R0
SYMATTR InstName Q2
TEXT 128 -208 Left 2 !.tran 3
