Version 4.1
SHEET 1 1304 1140
WIRE 736 -144 736 -176
WIRE 240 -128 240 -176
WIRE 736 -16 736 -64
WIRE 240 0 240 -48
WIRE 320 16 320 -16
WIRE 576 16 576 -48
WIRE 576 112 576 96
WIRE 736 112 736 48
WIRE 736 112 576 112
WIRE 816 112 736 112
WIRE -384 128 -384 112
WIRE -320 128 -384 128
WIRE -192 128 -240 128
WIRE -48 128 -112 128
WIRE 128 128 32 128
WIRE 320 128 320 96
WIRE 320 128 256 128
WIRE 576 144 576 112
WIRE -384 160 -384 128
WIRE -192 192 -224 192
WIRE -48 192 -112 192
WIRE 128 192 32 192
WIRE 384 192 256 192
WIRE 448 192 384 192
WIRE 512 192 448 192
WIRE 384 224 384 192
WIRE 448 224 448 192
WIRE -384 256 -384 240
WIRE -224 256 -224 192
WIRE -224 256 -384 256
WIRE -384 288 -384 256
WIRE 576 288 576 240
WIRE 384 336 384 288
WIRE 448 336 448 304
FLAG -384 288 0
FLAG 240 0 0
FLAG -384 112 L1
FLAG 240 -176 VCC
FLAG 576 288 0
FLAG 576 -48 VCC
FLAG 816 112 OUT
IOPIN 816 112 Out
FLAG 448 336 0
FLAG 384 336 0
FLAG 736 -176 VCC
FLAG 320 -16 VCC
SYMBOL res 432 208 R0
SYMATTR InstName R1
SYMATTR Value 33k
SYMBOL voltage -384 144 R0
WINDOW 123 0 0 Left 0
WINDOW 39 0 0 Left 0
WINDOW 0 39 36 Left 2
WINDOW 3 -57 -79 VRight 2
SYMATTR InstName V1
SYMATTR Value SINE(0 310 50 300m 0 0 100)
SYMBOL res 48 112 R90
WINDOW 0 -29 70 VBottom 2
WINDOW 3 -31 64 VTop 2
SYMATTR InstName R2
SYMATTR Value 33k
SYMBOL voltage 240 -144 R0
WINDOW 123 0 0 Left 0
WINDOW 39 0 0 Left 0
WINDOW 0 -70 41 Left 2
WINDOW 3 -56 69 Left 2
SYMATTR InstName V2
SYMATTR Value 5
SYMBOL res -96 112 R90
WINDOW 0 -27 67 VBottom 2
WINDOW 3 -30 61 VTop 2
SYMATTR InstName R3
SYMATTR Value 33k
SYMBOL res 48 176 R90
WINDOW 0 57 67 VBottom 2
WINDOW 3 53 60 VTop 2
SYMATTR InstName R4
SYMATTR Value 33k
SYMBOL res -96 176 R90
WINDOW 0 62 68 VBottom 2
WINDOW 3 56 63 VTop 2
SYMATTR InstName R5
SYMATTR Value 33k
SYMBOL cap 400 288 R180
WINDOW 0 24 56 Left 2
WINDOW 3 24 8 Left 2
SYMATTR InstName C1
SYMATTR Value 10µ
SYMBOL npn 512 144 R0
SYMATTR InstName Q1
SYMBOL res 304 0 R0
SYMATTR InstName R9
SYMATTR Value 2.2k
SYMBOL LED 720 -16 R0
WINDOW 0 -64 20 Left 2
WINDOW 3 -36 45 Left 2
SYMATTR InstName LED
SYMBOL res 560 0 R0
SYMATTR InstName R7
SYMATTR Value 10k
SYMBOL res 720 -160 R0
SYMATTR InstName R10
SYMATTR Value 2.2k
SYMBOL Contrib\\Wurth\\Optoelectronics\\Optocoupler\\WL-OCPT\\WL-OCPT_Series_354 192 160 R0
SYMATTR InstName Q3
SYMBOL res -224 112 R90
WINDOW 0 -27 67 VBottom 2
WINDOW 3 -30 61 VTop 2
SYMATTR InstName Fuse
SYMATTR Value 0
TEXT 80 -168 Left 2 !.tran 3
TEXT 160 248 Left 2 ;LTV814
