Version 4.1
SHEET 1 1304 1140
WIRE 720 -144 720 -176
WIRE 272 -112 272 -160
WIRE 720 -16 720 -64
WIRE 272 16 272 -32
WIRE 368 16 368 -16
WIRE 560 16 560 -48
WIRE 560 112 560 96
WIRE 720 112 720 48
WIRE 720 112 560 112
WIRE 800 112 720 112
WIRE -384 128 -384 112
WIRE -320 128 -384 128
WIRE -192 128 -240 128
WIRE -48 128 -112 128
WIRE 128 128 32 128
WIRE 368 128 368 96
WIRE 368 128 256 128
WIRE 560 144 560 112
WIRE -384 160 -384 128
WIRE -192 192 -224 192
WIRE -48 192 -112 192
WIRE 128 192 32 192
WIRE 368 192 256 192
WIRE 432 192 368 192
WIRE 496 192 432 192
WIRE 368 224 368 192
WIRE 432 224 432 192
WIRE -384 256 -384 240
WIRE -224 256 -224 192
WIRE -224 256 -384 256
WIRE -384 288 -384 256
WIRE 560 288 560 240
WIRE 368 336 368 288
WIRE 432 336 432 304
FLAG -384 288 0
FLAG 272 16 0
FLAG -384 112 L1
FLAG 272 -160 VCC
FLAG 560 288 0
FLAG 560 -48 VCC
FLAG 800 112 OUT
IOPIN 800 112 Out
FLAG 432 336 0
FLAG 368 336 0
FLAG 720 -176 VCC
FLAG 368 -16 VCC
SYMBOL res 416 208 R0
SYMATTR InstName R1
SYMATTR Value 100k
SYMBOL voltage -384 144 R0
WINDOW 123 0 0 Left 0
WINDOW 39 0 0 Left 0
WINDOW 0 39 36 Left 2
WINDOW 3 -57 -79 VRight 2
SYMATTR InstName V1
SYMATTR Value SINE(0 310 50 300m 0 0 100)
SYMBOL res 48 112 R90
WINDOW 0 -29 70 VBottom 2
WINDOW 3 -31 64 VTop 2
SYMATTR InstName R2
SYMATTR Value 33k
SYMBOL voltage 272 -128 R0
WINDOW 123 0 0 Left 0
WINDOW 39 0 0 Left 0
WINDOW 0 -70 41 Left 2
WINDOW 3 -56 69 Left 2
SYMATTR InstName V2
SYMATTR Value 5
SYMBOL res -96 112 R90
WINDOW 0 -27 67 VBottom 2
WINDOW 3 -30 61 VTop 2
SYMATTR InstName R3
SYMATTR Value 33k
SYMBOL res 48 176 R90
WINDOW 0 57 67 VBottom 2
WINDOW 3 53 60 VTop 2
SYMATTR InstName R4
SYMATTR Value 33k
SYMBOL res -96 176 R90
WINDOW 0 62 68 VBottom 2
WINDOW 3 56 63 VTop 2
SYMATTR InstName R5
SYMATTR Value 33k
SYMBOL cap 384 288 R180
WINDOW 0 24 56 Left 2
WINDOW 3 24 8 Left 2
SYMATTR InstName C1
SYMATTR Value 10µ
SYMBOL npn 496 144 R0
SYMATTR InstName Q1
SYMBOL res 352 0 R0
SYMATTR InstName R9
SYMATTR Value 100k
SYMBOL LED 704 -16 R0
WINDOW 0 -64 20 Left 2
WINDOW 3 -36 45 Left 2
SYMATTR InstName LED
SYMBOL res 544 0 R0
SYMATTR InstName R7
SYMATTR Value 10k
SYMBOL res 704 -160 R0
SYMATTR InstName R10
SYMATTR Value 2.2k
SYMBOL Contrib\\Wurth\\Optoelectronics\\Optocoupler\\WL-OCPT\\WL-OCPT_Series_354 192 160 R0
SYMATTR InstName Q3
SYMBOL res -224 112 R90
WINDOW 0 -27 67 VBottom 2
WINDOW 3 -30 61 VTop 2
SYMATTR InstName Fuse
SYMATTR Value 0
TEXT 112 -152 Left 2 !.tran 3
TEXT 160 248 Left 2 ;LTV814
