Version 4.1
SHEET 1 880 680
WIRE -448 176 -448 128
WIRE 512 176 512 128
WIRE -320 192 -320 160
WIRE -192 192 -192 160
WIRE 48 192 48 128
WIRE 224 192 224 160
WIRE 352 192 352 160
WIRE -448 288 -448 256
WIRE -320 288 -320 256
WIRE -320 288 -448 288
WIRE -192 288 -192 256
WIRE -192 288 -320 288
WIRE -80 288 -192 288
WIRE 224 288 224 256
WIRE 224 288 176 288
WIRE 352 288 352 256
WIRE 352 288 224 288
WIRE 512 288 512 256
WIRE 512 288 352 288
WIRE -448 320 -448 288
WIRE 512 320 512 288
FLAG -448 128 0
FLAG 512 320 OUT
FLAG -448 320 IN
FLAG 48 128 0
FLAG -320 160 0
FLAG -192 160 0
FLAG 224 160 0
FLAG 352 160 0
FLAG 512 128 0
SYMBOL voltage -448 160 M0
WINDOW 123 0 0 Left 0
WINDOW 39 0 0 Left 0
WINDOW 0 -64 37 Left 2
WINDOW 3 57 4 VRight 2
SYMATTR InstName V1
SYMATTR Value SINE(9 1.5 50)
SYMBOL cap -336 256 M180
WINDOW 0 49 39 Left 2
WINDOW 3 49 16 Left 2
SYMATTR InstName C1
SYMATTR Value 470µ
SYMBOL cap -208 256 M180
WINDOW 0 49 39 Left 2
WINDOW 3 49 16 Left 2
SYMATTR InstName C2
SYMATTR Value 100n
SYMBOL cap 208 256 M180
WINDOW 0 49 39 Left 2
WINDOW 3 49 16 Left 2
SYMATTR InstName C3
SYMATTR Value 100n
SYMBOL cap 336 256 M180
WINDOW 0 49 39 Left 2
WINDOW 3 49 16 Left 2
SYMATTR InstName C4
SYMATTR Value 470µ
SYMBOL res 496 272 M180
WINDOW 0 48 64 Left 2
WINDOW 3 48 40 Left 2
SYMATTR InstName LOAD
SYMATTR Value 10
SYMBOL MyLib\\Regulator\\LM7905 48 288 M180
WINDOW 38 -123 -104 Left 2
SYMATTR InstName U1
TEXT -456 40 Left 2 !.tran 40m
TEXT 552 256 Left 2 ;2.5W
TEXT -408 320 Left 2 ;Vin >= Vout - 2.5v\nVin >= -5v -2.5v >= -7.5v
